$DATA1 SOURCE='HSPICE' VERSION='L-2016.06 linux64' PARAM_COUNT=0
.TITLE '*************************'
 t_fall_delay     t_rise_delay     t_fall_time      t_rise_time     
 temper           alter#          
  1.391e-12        1.407e-12        1.612e-12        1.627e-12      
   25.0000        1               
