$DATA1 SOURCE='HSPICE' VERSION='L-2016.06 linux64' PARAM_COUNT=0
.TITLE '*************************'
 t_fall_delay     t_rise_delay     t_fall_time      t_rise_time     
 temper           alter#          
  2.629e-12        2.703e-12        3.218e-12        2.921e-12      
   25.0000        1               
