$DATA1 SOURCE='HSPICE' VERSION='L-2016.06 linux64' PARAM_COUNT=0
.TITLE '*************************'
 t_fall_delay_a   t_fall_delay_b   t_rise_delay_a   t_rise_delay_b  
 t_fall_time      t_rise_time      temper           alter#          
  3.382e-12        3.252e-12        3.582e-12        3.468e-12      
  3.912e-12        4.329e-12         25.0000        1               
