$DATA1 SOURCE='HSPICE' VERSION='L-2016.06 linux64' PARAM_COUNT=0
.TITLE '*************************'
 t_fall_delay_a   t_fall_delay_b   t_rise_delay_a   t_rise_delay_b  
 t_fall_time      t_rise_time      temper           alter#          
  3.207e-12        2.200e-06       -9.000e-07        3.000e-12      
  3.178e-12        3.585e-12         25.0000        1               
