$DATA1 SOURCE='HSPICE' VERSION='L-2016.06 linux64' PARAM_COUNT=0
.TITLE '*************************'
 t_fall_delay_a   t_rise_delay_b   t_fall_time      t_rise_time     
 temper           alter#          
  3.514e-12        3.265e-12        3.481e-12        3.840e-12      
   25.0000        1               
