$DATA1 SOURCE='HSPICE' VERSION='L-2016.06 linux64' PARAM_COUNT=3
.TITLE '*************************'
 index            multiplier       loadcap          rtl             
                  avg_current      avg_power        temper          
                  alter#          
 1                   1.0000         1.000e-15        5.340e-04      
                  -7.493e-13       -4.125e-17         25.0000       
                 1               
 2                   2.0000         1.000e-15        5.422e-04      
                  -7.445e-13       -4.152e-17         25.0000       
                 1               
 3                   3.0000         1.000e-15        5.828e-04      
                  -6.940e-13       -4.221e-17         25.0000       
                 1               
 4                   4.0000         1.000e-15        6.363e-04      
                  -6.398e-13       -4.274e-17         25.0000       
                 1               
 5                   5.0000         1.000e-15        6.940e-04      
                  -5.911e-13       -4.241e-17         25.0000       
                 1               
 6                   6.0000         1.000e-15        7.404e-04      
                  -5.555e-13       -4.265e-17         25.0000       
                 1               
 7                   7.0000         1.000e-15        7.797e-04      
                  -5.279e-13       -4.397e-17         25.0000       
                 1               
 8                   8.0000         1.000e-15        8.149e-04      
                  -5.052e-13       -4.429e-17         25.0000       
                 1               
 9                   9.0000         1.000e-15        8.501e-04      
                  -4.847e-13       -4.445e-17         25.0000       
                 1               
 10                 10.0000         1.000e-15        8.973e-04      
                  -4.613e-13       -4.384e-17         25.0000       
                 1               
 11                 11.0000         1.000e-15        9.364e-04      
                  -4.433e-13       -4.315e-17         25.0000       
                 1               
 12                 12.0000         1.000e-15        9.707e-04      
                  -4.282e-13       -4.281e-17         25.0000       
                 1               
 13                 13.0000         1.000e-15        1.002e-03      
                  -4.153e-13       -4.299e-17         25.0000       
                 1               
 14                 14.0000         1.000e-15        1.030e-03      
                  -4.041e-13       -4.328e-17         25.0000       
                 1               
 15                 15.0000         1.000e-15        1.056e-03      
                  -3.941e-13       -4.385e-17         25.0000       
                 1               
 16                 16.0000         1.000e-15        1.081e-03      
                  -3.852e-13       -4.417e-17         25.0000       
                 1               
 17                  1.0000         2.951e-15        1.035e-03      
                  -1.163e-12       -1.277e-16         25.0000       
                 1               
 18                  2.0000         2.951e-15        8.342e-04      
                  -1.443e-12       -1.269e-16         25.0000       
                 1               
 19                  3.0000         2.951e-15        8.477e-04      
                  -1.427e-12       -1.272e-16         25.0000       
                 1               
 20                  4.0000         2.951e-15        8.875e-04      
                  -1.365e-12       -1.278e-16         25.0000       
                 1               
 21                  5.0000         2.951e-15        9.334e-04      
                  -1.299e-12       -1.284e-16         25.0000       
                 1               
 22                  6.0000         2.951e-15        1.009e-03      
                  -1.213e-12       -1.293e-16         25.0000       
                 1               
 23                  7.0000         2.951e-15        1.067e-03      
                  -1.151e-12       -1.296e-16         25.0000       
                 1               
 24                  8.0000         2.951e-15        1.116e-03      
                  -1.102e-12       -1.291e-16         25.0000       
                 1               
 25                  9.0000         2.951e-15        1.158e-03      
                  -1.062e-12       -1.290e-16         25.0000       
                 1               
 26                 10.0000         2.951e-15        1.195e-03      
                  -1.029e-12       -1.305e-16         25.0000       
                 1               
 27                 11.0000         2.951e-15        1.229e-03      
                  -9.999e-13       -1.335e-16         25.0000       
                 1               
 28                 12.0000         2.951e-15        1.260e-03      
                  -9.740e-13       -1.355e-16         25.0000       
                 1               
 29                 13.0000         2.951e-15        1.296e-03      
                  -9.477e-13       -1.377e-16         25.0000       
                 1               
 30                 14.0000         2.951e-15        1.346e-03      
                  -9.164e-13       -1.384e-16         25.0000       
                 1               
 31                 15.0000         2.951e-15        1.389e-03      
                  -8.897e-13       -1.382e-16         25.0000       
                 1               
 32                 16.0000         2.951e-15        1.427e-03      
                  -8.671e-13       -1.374e-16         25.0000       
                 1               
 33                  1.0000         8.706e-15        2.500e-03      
                  -1.459e-12       -3.954e-16         25.0000       
                 1               
 34                  2.0000         8.706e-15        1.555e-03      
                  -2.315e-12       -3.887e-16         25.0000       
                 1               
 35                  3.0000         8.706e-15        1.396e-03      
                  -2.591e-12       -3.877e-16         25.0000       
                 1               
 36                  4.0000         8.706e-15        1.380e-03      
                  -2.631e-12       -3.880e-16         25.0000       
                 1               
 37                  5.0000         8.706e-15        1.408e-03      
                  -2.585e-12       -3.885e-16         25.0000       
                 1               
 38                  6.0000         8.706e-15        1.444e-03      
                  -2.520e-12       -3.893e-16         25.0000       
                 1               
 39                  7.0000         8.706e-15        1.485e-03      
                  -2.447e-12       -3.899e-16         25.0000       
                 1               
 40                  8.0000         8.706e-15        1.541e-03      
                  -2.361e-12       -3.912e-16         25.0000       
                 1               
 41                  9.0000         8.706e-15        1.625e-03      
                  -2.255e-12       -3.918e-16         25.0000       
                 1               
 42                 10.0000         8.706e-15        1.695e-03      
                  -2.169e-12       -3.938e-16         25.0000       
                 1               
 43                 11.0000         8.706e-15        1.754e-03      
                  -2.099e-12       -3.937e-16         25.0000       
                 1               
 44                 12.0000         8.706e-15        1.801e-03      
                  -2.045e-12       -3.936e-16         25.0000       
                 1               
 45                 13.0000         8.706e-15        1.844e-03      
                  -1.996e-12       -3.929e-16         25.0000       
                 1               
 46                 14.0000         8.706e-15        1.883e-03      
                  -1.952e-12       -3.915e-16         25.0000       
                 1               
 47                 15.0000         8.706e-15        1.919e-03      
                  -1.913e-12       -3.904e-16         25.0000       
                 1               
 48                 16.0000         8.706e-15        1.953e-03      
                  -1.878e-12       -3.898e-16         25.0000       
                 1               
 49                  1.0000         2.569e-14        6.938e-03      
                  -1.603e-12       -1.219e-15         25.0000       
                 1               
 50                  2.0000         2.569e-14        3.771e-03      
                  -2.901e-12       -1.193e-15         25.0000       
                 1               
 51                  3.0000         2.569e-14        2.821e-03      
                  -3.848e-12       -1.183e-15         25.0000       
                 1               
 52                  4.0000         2.569e-14        2.500e-03      
                  -4.345e-12       -1.180e-15         25.0000       
                 1               
 53                  5.0000         2.569e-14        2.372e-03      
                  -4.588e-12       -1.178e-15         25.0000       
                 1               
 54                  6.0000         2.569e-14        2.336e-03      
                  -4.668e-12       -1.177e-15         25.0000       
                 1               
 55                  7.0000         2.569e-14        2.343e-03      
                  -4.660e-12       -1.177e-15         25.0000       
                 1               
 56                  8.0000         2.569e-14        2.370e-03      
                  -4.608e-12       -1.177e-15         25.0000       
                 1               
 57                  9.0000         2.569e-14        2.406e-03      
                  -4.539e-12       -1.177e-15         25.0000       
                 1               
 58                 10.0000         2.569e-14        2.441e-03      
                  -4.472e-12       -1.177e-15         25.0000       
                 1               
 59                 11.0000         2.569e-14        2.480e-03      
                  -4.394e-12       -1.177e-15         25.0000       
                 1               
 60                 12.0000         2.569e-14        2.519e-03      
                  -4.319e-12       -1.177e-15         25.0000       
                 1               
 61                 13.0000         2.569e-14        2.554e-03      
                  -4.250e-12       -1.177e-15         25.0000       
                 1               
 62                 14.0000         2.569e-14        2.658e-03      
                  -4.108e-12       -1.178e-15         25.0000       
                 1               
 63                 15.0000         2.569e-14        2.749e-03      
                  -3.988e-12       -1.178e-15         25.0000       
                 1               
 64                 16.0000         2.569e-14        2.830e-03      
                  -3.885e-12       -1.179e-15         25.0000       
                 1               
 65                  1.0000         7.579e-14        1.975e-02      
                  -1.697e-12       -3.707e-15         25.0000       
                 1               
 66                  2.0000         7.579e-14        1.014e-02      
                  -3.260e-12       -3.643e-15         25.0000       
                 1               
 67                  3.0000         7.579e-14        7.227e-03      
                  -4.555e-12       -3.608e-15         25.0000       
                 1               
 68                  4.0000         7.579e-14        5.707e-03      
                  -5.730e-12       -3.587e-15         25.0000       
                 1               
 69                  5.0000         7.579e-14        4.918e-03      
                  -6.631e-12       -3.575e-15         25.0000       
                 1               
 70                  6.0000         7.579e-14        4.515e-03      
                  -7.232e-12       -3.566e-15         25.0000       
                 1               
 71                  7.0000         7.579e-14        4.265e-03      
                  -7.658e-12       -3.561e-15         25.0000       
                 1               
 72                  8.0000         7.579e-14        4.114e-03      
                  -7.939e-12       -3.557e-15         25.0000       
                 1               
 73                  9.0000         7.579e-14        4.033e-03      
                  -8.099e-12       -3.554e-15         25.0000       
                 1               
 74                 10.0000         7.579e-14        3.998e-03      
                  -8.173e-12       -3.551e-15         25.0000       
                 1               
 75                 11.0000         7.579e-14        3.996e-03      
                  -8.182e-12       -3.549e-15         25.0000       
                 1               
 76                 12.0000         7.579e-14        4.013e-03      
                  -8.151e-12       -3.547e-15         25.0000       
                 1               
 77                 13.0000         7.579e-14        4.043e-03      
                  -8.093e-12       -3.544e-15         25.0000       
                 1               
 78                 14.0000         7.579e-14        4.078e-03      
                  -8.023e-12       -3.543e-15         25.0000       
                 1               
 79                 15.0000         7.579e-14        4.119e-03      
                  -7.943e-12       -3.541e-15         25.0000       
                 1               
 80                 16.0000         7.579e-14        4.162e-03      
                  -7.858e-12       -3.540e-15         25.0000       
                 1               
 81                  1.0000         2.236e-13        5.871e-02      
                  -1.708e-12       -1.107e-14         25.0000       
                 1               
 82                  2.0000         2.236e-13        2.951e-02      
                  -3.375e-12       -1.100e-14         25.0000       
                 1               
 83                  3.0000         2.236e-13        2.010e-02      
                  -4.932e-12       -1.092e-14         25.0000       
                 1               
 84                  4.0000         2.236e-13        1.536e-02      
                  -6.420e-12       -1.087e-14         25.0000       
                 1               
 85                  5.0000         2.236e-13        1.247e-02      
                  -7.866e-12       -1.082e-14         25.0000       
                 1               
 86                  6.0000         2.236e-13        1.075e-02      
                  -9.107e-12       -1.079e-14         25.0000       
                 1               
 87                  7.0000         2.236e-13        9.689e-03      
                  -1.010e-11       -1.077e-14         25.0000       
                 1               
 88                  8.0000         2.236e-13        8.901e-03      
                  -1.099e-11       -1.074e-14         25.0000       
                 1               
 89                  9.0000         2.236e-13        8.300e-03      
                  -1.178e-11       -1.073e-14         25.0000       
                 1               
 90                 10.0000         2.236e-13        7.837e-03      
                  -1.246e-11       -1.071e-14         25.0000       
                 1               
 91                 11.0000         2.236e-13        7.512e-03      
                  -1.298e-11       -1.070e-14         25.0000       
                 1               
 92                 12.0000         2.236e-13        7.244e-03      
                  -1.344e-11       -1.069e-14         25.0000       
                 1               
 93                 13.0000         2.236e-13        7.051e-03      
                  -1.380e-11       -1.068e-14         25.0000       
                 1               
 94                 14.0000         2.236e-13        6.917e-03      
                  -1.405e-11       -1.067e-14         25.0000       
                 1               
 95                 15.0000         2.236e-13        6.819e-03      
                  -1.425e-11       -1.066e-14         25.0000       
                 1               
 96                 16.0000         2.236e-13        6.773e-03      
                  -1.434e-11       -1.066e-14         25.0000       
                 1               
 97                  1.0000         6.598e-13          0.1725       
                  -1.723e-12       -3.287e-14         25.0000       
                 1               
 98                  2.0000         6.598e-13        8.543e-02      
                  -3.462e-12       -3.277e-14         25.0000       
                 1               
 99                  3.0000         6.598e-13        5.795e-02      
                  -5.104e-12       -3.266e-14         25.0000       
                 1               
 100                 4.0000         6.598e-13        4.412e-02      
                  -6.692e-12       -3.258e-14         25.0000       
                 1               
 101                 5.0000         6.598e-13        3.513e-02      
                  -8.366e-12       -3.250e-14         25.0000       
                 1               
 102                 6.0000         6.598e-13        2.939e-02      
                  -9.974e-12       -3.243e-14         25.0000       
                 1               
 103                 7.0000         6.598e-13        2.583e-02      
                  -1.135e-11       -3.237e-14         25.0000       
                 1               
 104                 8.0000         6.598e-13        2.303e-02      
                  -1.273e-11       -3.232e-14         25.0000       
                 1               
 105                 9.0000         6.598e-13        2.098e-02      
                  -1.396e-11       -3.227e-14         25.0000       
                 1               
 106                10.0000         6.598e-13        1.929e-02      
                  -1.517e-11       -3.223e-14         25.0000       
                 1               
 107                11.0000         6.598e-13        1.787e-02      
                  -1.636e-11       -3.220e-14         25.0000       
                 1               
 108                12.0000         6.598e-13        1.662e-02      
                  -1.754e-11       -3.217e-14         25.0000       
                 1               
 109                13.0000         6.598e-13        1.554e-02      
                  -1.871e-11       -3.214e-14         25.0000       
                 1               
 110                14.0000         6.598e-13        1.478e-02      
                  -1.965e-11       -3.212e-14         25.0000       
                 1               
 111                15.0000         6.598e-13        1.425e-02      
                  -2.039e-11       -3.210e-14         25.0000       
                 1               
 112                16.0000         6.598e-13        1.379e-02      
                  -2.107e-11       -3.207e-14         25.0000       
                 1               
 113                 1.0000         1.947e-12          0.5009       
                  -1.748e-12       -9.714e-14         25.0000       
                 1               
 114                 2.0000         1.947e-12          0.2507       
                  -3.490e-12       -9.708e-14         25.0000       
                 1               
 115                 3.0000         1.947e-12          0.1698       
                  -5.163e-12       -9.701e-14         25.0000       
                 1               
 116                 4.0000         1.947e-12          0.1277       
                  -6.860e-12       -9.689e-14         25.0000       
                 1               
 117                 5.0000         1.947e-12          0.1022       
                  -8.558e-12       -9.678e-14         25.0000       
                 1               
 118                 6.0000         1.947e-12        8.471e-02      
                  -1.030e-11       -9.666e-14         25.0000       
                 1               
 119                 7.0000         1.947e-12        7.258e-02      
                  -1.200e-11       -9.656e-14         25.0000       
                 1               
 120                 8.0000         1.947e-12        6.440e-02      
                  -1.354e-11       -9.646e-14         25.0000       
                 1               
 121                 9.0000         1.947e-12        5.804e-02      
                  -1.503e-11       -9.637e-14         25.0000       
                 1               
 122                10.0000         1.947e-12        5.294e-02      
                  -1.648e-11       -9.629e-14         25.0000       
                 1               
 123                11.0000         1.947e-12        4.859e-02      
                  -1.795e-11       -9.621e-14         25.0000       
                 1               
 124                12.0000         1.947e-12        4.480e-02      
                  -1.944e-11       -9.614e-14         25.0000       
                 1               
 125                13.0000         1.947e-12        4.153e-02      
                  -2.094e-11       -9.607e-14         25.0000       
                 1               
 126                14.0000         1.947e-12        3.871e-02      
                  -2.243e-11       -9.601e-14         25.0000       
                 1               
 127                15.0000         1.947e-12        3.620e-02      
                  -2.394e-11       -9.596e-14         25.0000       
                 1               
 128                16.0000         1.947e-12        3.417e-02      
                  -2.534e-11       -9.591e-14         25.0000       
                 1               
 129                 1.0000         5.743e-12          1.4975       
                  -1.728e-12       -2.864e-13         25.0000       
                 1               
 130                 2.0000         5.743e-12          0.7438       
                  -3.476e-12       -2.866e-13         25.0000       
                 1               
 131                 3.0000         5.743e-12          0.4948       
                  -5.222e-12       -2.866e-13         25.0000       
                 1               
 132                 4.0000         5.743e-12          0.3744       
                  -6.911e-12       -2.865e-13         25.0000       
                 1               
 133                 5.0000         5.743e-12          0.3013       
                  -8.594e-12       -2.864e-13         25.0000       
                 1               
 134                 6.0000         5.743e-12          0.2510       
                  -1.031e-11       -2.863e-13         25.0000       
                 1               
 135                 7.0000         5.743e-12          0.2146       
                  -1.205e-11       -2.861e-13         25.0000       
                 1               
 136                 8.0000         5.743e-12          0.1872       
                  -1.379e-11       -2.860e-13         25.0000       
                 1               
 137                 9.0000         5.743e-12          0.1652       
                  -1.561e-11       -2.859e-13         25.0000       
                 1               
 138                10.0000         5.743e-12          0.1501       
                  -1.720e-11       -2.858e-13         25.0000       
                 1               
 139                11.0000         5.743e-12          0.1374       
                  -1.879e-11       -2.857e-13         25.0000       
                 1               
 140                12.0000         5.743e-12          0.1270       
                  -2.035e-11       -2.856e-13         25.0000       
                 1               
 141                13.0000         5.743e-12          0.1183       
                  -2.185e-11       -2.855e-13         25.0000       
                 1               
 142                14.0000         5.743e-12          0.1104       
                  -2.341e-11       -2.854e-13         25.0000       
                 1               
 143                15.0000         5.743e-12          0.1034       
                  -2.499e-11       -2.854e-13         25.0000       
                 1               
 144                16.0000         5.743e-12        9.699e-02      
                  -2.662e-11       -2.853e-13         25.0000       
                 1               
 145                 1.0000         1.695e-11          4.4087       
                  -1.730e-12       -8.250e-13         25.0000       
                 1               
 146                 2.0000         1.695e-11          2.2078       
                  -3.457e-12       -8.432e-13         25.0000       
                 1               
 147                 3.0000         1.695e-11          1.4752       
                  -5.177e-12       -8.451e-13         25.0000       
                 1               
 148                 4.0000         1.695e-11          1.1018       
                  -6.927e-12       -8.453e-13         25.0000       
                 1               
 149                 5.0000         1.695e-11          0.8855       
                  -8.624e-12       -8.455e-13         25.0000       
                 1               
 150                 6.0000         1.695e-11          0.7306       
                  -1.044e-11       -8.455e-13         25.0000       
                 1               
 151                 7.0000         1.695e-11          0.6292       
                  -1.213e-11       -8.455e-13         25.0000       
                 1               
 152                 8.0000         1.695e-11          0.5539       
                  -1.379e-11       -8.454e-13         25.0000       
                 1               
 153                 9.0000         1.695e-11          0.4934       
                  -1.548e-11       -8.454e-13         25.0000       
                 1               
 154                10.0000         1.695e-11          0.4438       
                  -1.721e-11       -8.453e-13         25.0000       
                 1               
 155                11.0000         1.695e-11          0.4018       
                  -1.899e-11       -8.453e-13         25.0000       
                 1               
 156                12.0000         1.695e-11          0.3660       
                  -2.082e-11       -8.452e-13         25.0000       
                 1               
 157                13.0000         1.695e-11          0.3382       
                  -2.253e-11       -8.452e-13         25.0000       
                 1               
 158                14.0000         1.695e-11          0.3160       
                  -2.414e-11       -8.452e-13         25.0000       
                 1               
 159                15.0000         1.695e-11          0.2964       
                  -2.576e-11       -8.453e-13         25.0000       
                 1               
 160                16.0000         1.695e-11          0.2787       
                  -2.739e-11       -8.453e-13         25.0000       
                 1               
 161                 1.0000         5.000e-11          failed       
                  -2.739e-11       -2.125e-12         25.0000       
                 1               
 162                 2.0000         5.000e-11          6.5210       
                  -3.450e-12       -2.355e-12         25.0000       
                 1               
 163                 3.0000         5.000e-11          4.3398       
                  -5.185e-12       -2.436e-12         25.0000       
                 1               
 164                 4.0000         5.000e-11          3.2541       
                  -6.916e-12       -2.468e-12         25.0000       
                 1               
 165                 5.0000         5.000e-11          2.6046       
                  -8.642e-12       -2.482e-12         25.0000       
                 1               
 166                 6.0000         5.000e-11          2.1727       
                  -1.036e-11       -2.488e-12         25.0000       
                 1               
 167                 7.0000         5.000e-11          1.8539       
                  -1.214e-11       -2.491e-12         25.0000       
                 1               
 168                 8.0000         5.000e-11          1.6254       
                  -1.385e-11       -2.493e-12         25.0000       
                 1               
 169                 9.0000         5.000e-11          1.4517       
                  -1.552e-11       -2.493e-12         25.0000       
                 1               
 170                10.0000         5.000e-11          1.3073       
                  -1.724e-11       -2.494e-12         25.0000       
                 1               
 171                11.0000         5.000e-11          1.1842       
                  -1.902e-11       -2.494e-12         25.0000       
                 1               
 172                12.0000         5.000e-11          1.0777       
                  -2.087e-11       -2.494e-12         25.0000       
                 1               
 173                13.0000         5.000e-11          0.9993       
                  -2.252e-11       -2.494e-12         25.0000       
                 1               
 174                14.0000         5.000e-11          0.9323       
                  -2.416e-11       -2.494e-12         25.0000       
                 1               
 175                15.0000         5.000e-11          0.8723       
                  -2.583e-11       -2.494e-12         25.0000       
                 1               
 176                16.0000         5.000e-11          0.8183       
                  -2.754e-11       -2.494e-12         25.0000       
                 1               
