$DATA1 SOURCE='HSPICE' VERSION='L-2016.06 linux64' PARAM_COUNT=0
.TITLE '*************************'
 t_fall_delay_a   t_rise_delay_b   t_fall_time      t_rise_time     
 temper           alter#          
  3.836e-12        3.550e-12        3.975e-12        4.253e-12      
   25.0000        1               
