$DATA1 SOURCE='HSPICE' VERSION='L-2016.06 linux64' PARAM_COUNT=0
.TITLE '*************************'
 t_fall_delay     t_rise_delay     t_fall_time      t_rise_time     
 temper           alter#          
  1.995e-12        2.001e-12        1.961e-12        1.945e-12      
   25.0000        1               
