****** HSPICE -- L-2016.06 linux64 (May 22 2016) ******
 Input File: DRAM_MOSFET_Sweep.sp
 lic:
 lic: FLEXlm: v11.2.1
 lic: USER:   rksingh              HOSTNAME: viterbi-scf2
 lic: HOSTID: "e4434b6e9272"       PID:      243610
 lic: Using FLEXlm license file:
 lic: 1720@ics-lic2.usc.edu
 lic: Checkout 1 hspice
 lic: License/Maintenance for hspice will expire on 30-jun-2021/2019.06
 lic: 2(in_use)/50(total) FLOATING license(s) on SERVER 1720@ics-lic2.usc.edu
 lic:
 init: begin read circuit files,  cpu clock=  1.40E-01
       option search = /usr/local/synopsys/HSPICE/L-2016.06/hspice/part
                         s/ad
       option runlvl
       option post
       option brief
       option nomod
       option probe
       option measout
 init: end read circuit files,  cpu clock=  1.50E-01 peak memory=       237 mb
 init: begin check errors,  cpu clock=  1.50E-01
 init: end check errors,  cpu clock=  1.50E-01 peak memory=       237 mb
 init: begin setup matrix, pivot=     0 cpu clock=  1.50E-01
       establish matrix -- done,  cpu clock=  1.50E-01 peak memory=       237 mb
       re-order matrix -- done,  cpu clock=  1.50E-01 peak memory=       237 mb
 init: end setup matrix,  cpu clock=  1.50E-01 peak memory=       237 mb
 sweep: data            data1            begin, #sweeps = 176
 data: data=table           multiplier      =    1.00E+00
 dcop: begin dcop,  cpu clock=  1.50E-01
 dcop: end dcop,  cpu clock=  1.50E-01 peak memory=       237 mb  tot_iter=      10
 output: DRAM_MOSFET_Sweep.mt0
 sweep: tran tran1    begin, stop_t=  7.55E+00 #sweeps=**** cpu clock=  1.60E-01
 tran: time= 9.1997E-01 tot_iter=      43 conv_iter=      17 cpu clock= 1.60E-01
 tran: time= 1.6750E+00 tot_iter=      47 conv_iter=      19 cpu clock= 1.60E-01
 tran: time= 2.4300E+00 tot_iter=      52 conv_iter=      21 cpu clock= 1.60E-01
 tran: time= 3.1850E+00 tot_iter=      56 conv_iter=      23 cpu clock= 1.60E-01
 tran: time= 3.9400E+00 tot_iter=      60 conv_iter=      25 cpu clock= 1.60E-01
 tran: time= 4.6950E+00 tot_iter=      64 conv_iter=      27 cpu clock= 1.60E-01
 tran: time= 5.4500E+00 tot_iter=      68 conv_iter=      29 cpu clock= 1.60E-01
 tran: time= 6.2050E+00 tot_iter=      72 conv_iter=      31 cpu clock= 1.60E-01
 tran: time= 6.9600E+00 tot_iter=      76 conv_iter=      33 cpu clock= 1.60E-01
 tran: time= 7.5500E+00 tot_iter=      80 conv_iter=      35 cpu clock= 1.60E-01
 sweep: tran tran1    end,  cpu clock=  1.60E-01 peak memory=       237 mb
 data: data=table           multiplier      =    2.00E+00
 dcop: begin dcop,  cpu clock=  3.70E-01
 dcop: end dcop,  cpu clock=  3.70E-01 peak memory=       239 mb  tot_iter=      20
 output: DRAM_MOSFET_Sweep.mt0
 sweep: tran tran2    begin, stop_t=  7.55E+00 #sweeps=**** cpu clock=  3.70E-01
 tran: time= 9.6482E-01 tot_iter=      48 conv_iter=      17 cpu clock= 3.70E-01
 tran: time= 1.7198E+00 tot_iter=      52 conv_iter=      19 cpu clock= 3.70E-01
 tran: time= 2.4748E+00 tot_iter=      56 conv_iter=      21 cpu clock= 3.70E-01
 tran: time= 3.2298E+00 tot_iter=      60 conv_iter=      23 cpu clock= 3.70E-01
 tran: time= 3.9848E+00 tot_iter=      64 conv_iter=      25 cpu clock= 3.70E-01
 tran: time= 4.7398E+00 tot_iter=      68 conv_iter=      27 cpu clock= 3.70E-01
 tran: time= 5.4948E+00 tot_iter=      73 conv_iter=      29 cpu clock= 3.70E-01
 tran: time= 6.2498E+00 tot_iter=      77 conv_iter=      31 cpu clock= 3.70E-01
 tran: time= 7.0048E+00 tot_iter=      81 conv_iter=      33 cpu clock= 3.70E-01
 tran: time= 7.5500E+00 tot_iter=      85 conv_iter=      35 cpu clock= 3.80E-01
 sweep: tran tran2    end,  cpu clock=  3.80E-01 peak memory=       239 mb
 data: data=table           multiplier      =    3.00E+00
 dcop: begin dcop,  cpu clock=  5.60E-01
 dcop: end dcop,  cpu clock=  5.60E-01 peak memory=       234 mb  tot_iter=      30
 output: DRAM_MOSFET_Sweep.mt0
 sweep: tran tran3    begin, stop_t=  7.55E+00 #sweeps=**** cpu clock=  5.60E-01
 tran: time= 8.4466E-01 tot_iter=      50 conv_iter=      18 cpu clock= 5.60E-01
 tran: time= 1.5997E+00 tot_iter=      54 conv_iter=      20 cpu clock= 5.60E-01
 tran: time= 2.3547E+00 tot_iter=      58 conv_iter=      22 cpu clock= 5.60E-01
 tran: time= 3.1097E+00 tot_iter=      62 conv_iter=      24 cpu clock= 5.60E-01
 tran: time= 3.8647E+00 tot_iter=      66 conv_iter=      26 cpu clock= 5.60E-01
 tran: time= 4.6197E+00 tot_iter=      70 conv_iter=      28 cpu clock= 5.60E-01
 tran: time= 5.3747E+00 tot_iter=      74 conv_iter=      30 cpu clock= 5.60E-01
 tran: time= 6.1297E+00 tot_iter=      78 conv_iter=      32 cpu clock= 5.60E-01
 tran: time= 6.8847E+00 tot_iter=      82 conv_iter=      34 cpu clock= 5.60E-01
 tran: time= 7.5500E+00 tot_iter=      86 conv_iter=      36 cpu clock= 5.60E-01
 sweep: tran tran3    end,  cpu clock=  5.60E-01 peak memory=       234 mb
 data: data=table           multiplier      =    4.00E+00
 dcop: begin dcop,  cpu clock=  6.00E-01
 dcop: end dcop,  cpu clock=  6.00E-01 peak memory=       234 mb  tot_iter=      40
 output: DRAM_MOSFET_Sweep.mt0
 sweep: tran tran4    begin, stop_t=  7.55E+00 #sweeps=**** cpu clock=  6.00E-01
 tran: time= 1.0644E+00 tot_iter=      55 conv_iter=      19 cpu clock= 6.00E-01
 tran: time= 1.8194E+00 tot_iter=      59 conv_iter=      21 cpu clock= 6.00E-01
 tran: time= 2.5744E+00 tot_iter=      63 conv_iter=      23 cpu clock= 6.00E-01
 tran: time= 3.3294E+00 tot_iter=      67 conv_iter=      25 cpu clock= 6.00E-01
 tran: time= 4.0844E+00 tot_iter=      71 conv_iter=      27 cpu clock= 6.00E-01
 tran: time= 4.8394E+00 tot_iter=      75 conv_iter=      29 cpu clock= 6.00E-01
 tran: time= 5.5944E+00 tot_iter=      79 conv_iter=      31 cpu clock= 6.00E-01
 tran: time= 6.3494E+00 tot_iter=      83 conv_iter=      33 cpu clock= 6.00E-01
 tran: time= 7.1044E+00 tot_iter=      87 conv_iter=      35 cpu clock= 6.00E-01
 tran: time= 7.5500E+00 tot_iter=      91 conv_iter=      37 cpu clock= 6.00E-01
 sweep: tran tran4    end,  cpu clock=  6.00E-01 peak memory=       234 mb
 data: data=table           multiplier      =    5.00E+00
 dcop: begin dcop,  cpu clock=  6.40E-01
 dcop: end dcop,  cpu clock=  6.40E-01 peak memory=       234 mb  tot_iter=      50
 output: DRAM_MOSFET_Sweep.mt0
 sweep: tran tran5    begin, stop_t=  7.55E+00 #sweeps=**** cpu clock=  6.40E-01
 tran: time= 9.0327E-01 tot_iter=      51 conv_iter=      18 cpu clock= 6.40E-01
 tran: time= 1.6583E+00 tot_iter=      55 conv_iter=      20 cpu clock= 6.40E-01
 tran: time= 2.4133E+00 tot_iter=      59 conv_iter=      22 cpu clock= 6.40E-01
 tran: time= 3.1683E+00 tot_iter=      63 conv_iter=      24 cpu clock= 6.40E-01
 tran: time= 3.9233E+00 tot_iter=      67 conv_iter=      26 cpu clock= 6.40E-01
 tran: time= 4.6783E+00 tot_iter=      71 conv_iter=      28 cpu clock= 6.40E-01
 tran: time= 5.4333E+00 tot_iter=      75 conv_iter=      30 cpu clock= 6.40E-01
 tran: time= 6.1883E+00 tot_iter=      79 conv_iter=      32 cpu clock= 6.40E-01
 tran: time= 6.9433E+00 tot_iter=      83 conv_iter=      34 cpu clock= 6.40E-01
 tran: time= 7.5500E+00 tot_iter=      87 conv_iter=      36 cpu clock= 6.40E-01
 sweep: tran tran5    end,  cpu clock=  6.40E-01 peak memory=       234 mb
 data: data=table           multiplier      =    6.00E+00
 dcop: begin dcop,  cpu clock=  6.80E-01
 dcop: end dcop,  cpu clock=  6.80E-01 peak memory=       234 mb  tot_iter=      60
 output: DRAM_MOSFET_Sweep.mt0
 sweep: tran tran6    begin, stop_t=  7.55E+00 #sweeps=**** cpu clock=  6.80E-01
 tran: time= 1.0050E+00 tot_iter=      56 conv_iter=      19 cpu clock= 6.80E-01
 tran: time= 1.7600E+00 tot_iter=      60 conv_iter=      21 cpu clock= 6.80E-01
 tran: time= 2.5150E+00 tot_iter=      64 conv_iter=      23 cpu clock= 6.80E-01
 tran: time= 3.2700E+00 tot_iter=      68 conv_iter=      25 cpu clock= 6.80E-01
 tran: time= 4.0250E+00 tot_iter=      72 conv_iter=      27 cpu clock= 6.80E-01
 tran: time= 4.7800E+00 tot_iter=      76 conv_iter=      29 cpu clock= 6.80E-01
 tran: time= 5.5350E+00 tot_iter=      80 conv_iter=      31 cpu clock= 6.80E-01
 tran: time= 6.2900E+00 tot_iter=      84 conv_iter=      33 cpu clock= 6.80E-01
 tran: time= 7.0450E+00 tot_iter=      88 conv_iter=      35 cpu clock= 6.80E-01
 tran: time= 7.5500E+00 tot_iter=      92 conv_iter=      37 cpu clock= 6.80E-01
 sweep: tran tran6    end,  cpu clock=  6.80E-01 peak memory=       234 mb
 data: data=table           multiplier      =    7.00E+00
 dcop: begin dcop,  cpu clock=  7.20E-01
 dcop: end dcop,  cpu clock=  7.20E-01 peak memory=       234 mb  tot_iter=      70
 output: DRAM_MOSFET_Sweep.mt0
 sweep: tran tran7    begin, stop_t=  7.55E+00 #sweeps=**** cpu clock=  7.20E-01
 tran: time= 9.8173E-01 tot_iter=      59 conv_iter=      20 cpu clock= 7.20E-01
 tran: time= 1.7367E+00 tot_iter=      63 conv_iter=      22 cpu clock= 7.20E-01
 tran: time= 2.4917E+00 tot_iter=      67 conv_iter=      24 cpu clock= 7.20E-01
 tran: time= 3.2467E+00 tot_iter=      71 conv_iter=      26 cpu clock= 7.20E-01
 tran: time= 4.0017E+00 tot_iter=      75 conv_iter=      28 cpu clock= 7.20E-01
 tran: time= 4.7567E+00 tot_iter=      79 conv_iter=      30 cpu clock= 7.20E-01
 tran: time= 5.5117E+00 tot_iter=      83 conv_iter=      32 cpu clock= 7.20E-01
 tran: time= 6.2667E+00 tot_iter=      87 conv_iter=      34 cpu clock= 7.20E-01
 tran: time= 7.0217E+00 tot_iter=      91 conv_iter=      36 cpu clock= 7.20E-01
 tran: time= 7.5500E+00 tot_iter=      95 conv_iter=      38 cpu clock= 7.20E-01
 sweep: tran tran7    end,  cpu clock=  7.20E-01 peak memory=       234 mb
 data: data=table           multiplier      =    8.00E+00
 dcop: begin dcop,  cpu clock=  7.60E-01
 dcop: end dcop,  cpu clock=  7.60E-01 peak memory=       234 mb  tot_iter=      80
 output: DRAM_MOSFET_Sweep.mt0
 sweep: tran tran8    begin, stop_t=  7.55E+00 #sweeps=**** cpu clock=  7.60E-01
 tran: time= 9.2143E-01 tot_iter=      61 conv_iter=      20 cpu clock= 7.60E-01
 tran: time= 1.6764E+00 tot_iter=      65 conv_iter=      22 cpu clock= 7.60E-01
 tran: time= 2.4314E+00 tot_iter=      69 conv_iter=      24 cpu clock= 7.60E-01
 tran: time= 3.1864E+00 tot_iter=      73 conv_iter=      26 cpu clock= 7.60E-01
 tran: time= 3.9414E+00 tot_iter=      77 conv_iter=      28 cpu clock= 7.60E-01
 tran: time= 4.6964E+00 tot_iter=      81 conv_iter=      30 cpu clock= 7.60E-01
 tran: time= 5.4514E+00 tot_iter=      85 conv_iter=      32 cpu clock= 7.60E-01
 tran: time= 6.2064E+00 tot_iter=      89 conv_iter=      34 cpu clock= 7.60E-01
 tran: time= 6.9614E+00 tot_iter=      93 conv_iter=      36 cpu clock= 7.60E-01
 tran: time= 7.5500E+00 tot_iter=      97 conv_iter=      38 cpu clock= 7.60E-01
 sweep: tran tran8    end,  cpu clock=  7.60E-01 peak memory=       234 mb
 data: data=table           multiplier      =    9.00E+00
 dcop: begin dcop,  cpu clock=  8.00E-01
 dcop: end dcop,  cpu clock=  8.00E-01 peak memory=       234 mb  tot_iter=      90
 output: DRAM_MOSFET_Sweep.mt0
 sweep: tran tran9    begin, stop_t=  7.55E+00 #sweeps=**** cpu clock=  8.00E-01
 tran: time= 8.8138E-01 tot_iter=      59 conv_iter=      20 cpu clock= 8.00E-01
 tran: time= 1.6364E+00 tot_iter=      63 conv_iter=      22 cpu clock= 8.00E-01
 tran: time= 2.3914E+00 tot_iter=      67 conv_iter=      24 cpu clock= 8.00E-01
 tran: time= 3.1464E+00 tot_iter=      71 conv_iter=      26 cpu clock= 8.00E-01
 tran: time= 3.9014E+00 tot_iter=      75 conv_iter=      28 cpu clock= 8.00E-01
 tran: time= 4.6564E+00 tot_iter=      79 conv_iter=      30 cpu clock= 8.00E-01
 tran: time= 5.4114E+00 tot_iter=      83 conv_iter=      32 cpu clock= 8.00E-01
 tran: time= 6.1664E+00 tot_iter=      87 conv_iter=      34 cpu clock= 8.00E-01
 tran: time= 6.9214E+00 tot_iter=      91 conv_iter=      36 cpu clock= 8.00E-01
 tran: time= 7.5500E+00 tot_iter=      95 conv_iter=      38 cpu clock= 8.00E-01
 sweep: tran tran9    end,  cpu clock=  8.00E-01 peak memory=       234 mb
 data: data=table           multiplier      =    1.00E+01
 dcop: begin dcop,  cpu clock=  8.30E-01
 dcop: end dcop,  cpu clock=  8.30E-01 peak memory=       234 mb  tot_iter=     100
 output: DRAM_MOSFET_Sweep.mt0
 sweep: tran tran10   begin, stop_t=  7.55E+00 #sweeps=**** cpu clock=  8.30E-01
 tran: time= 9.8381E-01 tot_iter=      59 conv_iter=      20 cpu clock= 8.30E-01
 tran: time= 1.7388E+00 tot_iter=      63 conv_iter=      22 cpu clock= 8.30E-01
 tran: time= 2.4938E+00 tot_iter=      67 conv_iter=      24 cpu clock= 8.30E-01
 tran: time= 3.2488E+00 tot_iter=      71 conv_iter=      26 cpu clock= 8.30E-01
 tran: time= 4.0038E+00 tot_iter=      75 conv_iter=      28 cpu clock= 8.30E-01
 tran: time= 4.7588E+00 tot_iter=      79 conv_iter=      30 cpu clock= 8.30E-01
 tran: time= 5.5138E+00 tot_iter=      83 conv_iter=      32 cpu clock= 8.30E-01
 tran: time= 6.2688E+00 tot_iter=      87 conv_iter=      34 cpu clock= 8.30E-01
 tran: time= 7.0238E+00 tot_iter=      91 conv_iter=      36 cpu clock= 8.30E-01
 tran: time= 7.5500E+00 tot_iter=      95 conv_iter=      38 cpu clock= 8.30E-01
 sweep: tran tran10   end,  cpu clock=  8.30E-01 peak memory=       234 mb
 data: data=table           multiplier      =    1.10E+01
 dcop: begin dcop,  cpu clock=  8.70E-01
 dcop: end dcop,  cpu clock=  8.70E-01 peak memory=       234 mb  tot_iter=     110
 output: DRAM_MOSFET_Sweep.mt0
 sweep: tran tran11   begin, stop_t=  7.55E+00 #sweeps=**** cpu clock=  8.70E-01
 tran: time= 8.0099E-01 tot_iter=      57 conv_iter=      19 cpu clock= 8.70E-01
 tran: time= 1.5560E+00 tot_iter=      61 conv_iter=      21 cpu clock= 8.70E-01
 tran: time= 2.3110E+00 tot_iter=      65 conv_iter=      23 cpu clock= 8.70E-01
 tran: time= 3.0660E+00 tot_iter=      69 conv_iter=      25 cpu clock= 8.70E-01
 tran: time= 3.8210E+00 tot_iter=      73 conv_iter=      27 cpu clock= 8.70E-01
 tran: time= 4.5760E+00 tot_iter=      77 conv_iter=      29 cpu clock= 8.70E-01
 tran: time= 5.3310E+00 tot_iter=      81 conv_iter=      31 cpu clock= 8.70E-01
 tran: time= 6.0860E+00 tot_iter=      85 conv_iter=      33 cpu clock= 8.70E-01
 tran: time= 6.8410E+00 tot_iter=      89 conv_iter=      35 cpu clock= 8.70E-01
 tran: time= 7.5500E+00 tot_iter=      93 conv_iter=      37 cpu clock= 8.70E-01
 sweep: tran tran11   end,  cpu clock=  8.70E-01 peak memory=       234 mb
 data: data=table           multiplier      =    1.20E+01
 dcop: begin dcop,  cpu clock=  9.10E-01
 dcop: end dcop,  cpu clock=  9.10E-01 peak memory=       234 mb  tot_iter=     120
 output: DRAM_MOSFET_Sweep.mt0
 sweep: tran tran12   begin, stop_t=  7.55E+00 #sweeps=**** cpu clock=  9.10E-01
 tran: time= 1.0670E+00 tot_iter=      58 conv_iter=      19 cpu clock= 9.10E-01
 tran: time= 1.8220E+00 tot_iter=      62 conv_iter=      21 cpu clock= 9.10E-01
 tran: time= 2.5770E+00 tot_iter=      66 conv_iter=      23 cpu clock= 9.10E-01
 tran: time= 3.3320E+00 tot_iter=      70 conv_iter=      25 cpu clock= 9.10E-01
 tran: time= 4.0870E+00 tot_iter=      74 conv_iter=      27 cpu clock= 9.10E-01
 tran: time= 4.8420E+00 tot_iter=      78 conv_iter=      29 cpu clock= 9.10E-01
 tran: time= 5.5970E+00 tot_iter=      82 conv_iter=      31 cpu clock= 9.10E-01
 tran: time= 6.3520E+00 tot_iter=      86 conv_iter=      33 cpu clock= 9.10E-01
 tran: time= 7.1070E+00 tot_iter=      90 conv_iter=      35 cpu clock= 9.10E-01
 tran: time= 7.5500E+00 tot_iter=      94 conv_iter=      37 cpu clock= 9.10E-01
 sweep: tran tran12   end,  cpu clock=  9.10E-01 peak memory=       234 mb
 data: data=table           multiplier      =    1.30E+01
 dcop: begin dcop,  cpu clock=  9.50E-01
 dcop: end dcop,  cpu clock=  9.50E-01 peak memory=       234 mb  tot_iter=     130
 output: DRAM_MOSFET_Sweep.mt0
 sweep: tran tran13   begin, stop_t=  7.55E+00 #sweeps=**** cpu clock=  9.50E-01
 tran: time= 8.8292E-01 tot_iter=      57 conv_iter=      19 cpu clock= 9.50E-01
 tran: time= 1.6379E+00 tot_iter=      61 conv_iter=      21 cpu clock= 9.50E-01
 tran: time= 2.3929E+00 tot_iter=      65 conv_iter=      23 cpu clock= 9.50E-01
 tran: time= 3.1479E+00 tot_iter=      69 conv_iter=      25 cpu clock= 9.50E-01
 tran: time= 3.9029E+00 tot_iter=      73 conv_iter=      27 cpu clock= 9.50E-01
 tran: time= 4.6579E+00 tot_iter=      77 conv_iter=      29 cpu clock= 9.50E-01
 tran: time= 5.4129E+00 tot_iter=      81 conv_iter=      31 cpu clock= 9.50E-01
 tran: time= 6.1679E+00 tot_iter=      85 conv_iter=      33 cpu clock= 9.50E-01
 tran: time= 6.9229E+00 tot_iter=      89 conv_iter=      35 cpu clock= 9.50E-01
 tran: time= 7.5500E+00 tot_iter=      93 conv_iter=      37 cpu clock= 9.50E-01
 sweep: tran tran13   end,  cpu clock=  9.50E-01 peak memory=       234 mb
 data: data=table           multiplier      =    1.40E+01
 dcop: begin dcop,  cpu clock=  9.80E-01
 dcop: end dcop,  cpu clock=  9.80E-01 peak memory=       234 mb  tot_iter=     140
 output: DRAM_MOSFET_Sweep.mt0
 sweep: tran tran14   begin, stop_t=  7.55E+00 #sweeps=**** cpu clock=  9.80E-01
 tran: time= 1.1241E+00 tot_iter=      62 conv_iter=      20 cpu clock= 9.80E-01
 tran: time= 1.8791E+00 tot_iter=      66 conv_iter=      22 cpu clock= 9.80E-01
 tran: time= 2.6341E+00 tot_iter=      70 conv_iter=      24 cpu clock= 9.80E-01
 tran: time= 3.3891E+00 tot_iter=      74 conv_iter=      26 cpu clock= 9.80E-01
 tran: time= 4.1441E+00 tot_iter=      78 conv_iter=      28 cpu clock= 9.80E-01
 tran: time= 4.8991E+00 tot_iter=      82 conv_iter=      30 cpu clock= 9.80E-01
 tran: time= 5.6541E+00 tot_iter=      86 conv_iter=      32 cpu clock= 9.80E-01
 tran: time= 6.4091E+00 tot_iter=      90 conv_iter=      34 cpu clock= 9.80E-01
 tran: time= 7.1641E+00 tot_iter=      94 conv_iter=      36 cpu clock= 9.80E-01
 tran: time= 7.5500E+00 tot_iter=      96 conv_iter=      37 cpu clock= 9.80E-01
 sweep: tran tran14   end,  cpu clock=  9.80E-01 peak memory=       234 mb
 data: data=table           multiplier      =    1.50E+01
 dcop: begin dcop,  cpu clock=  1.02E+00
 dcop: end dcop,  cpu clock=  1.02E+00 peak memory=       234 mb  tot_iter=     150
 output: DRAM_MOSFET_Sweep.mt0
 sweep: tran tran15   begin, stop_t=  7.55E+00 #sweeps=**** cpu clock=  1.02E+00
 tran: time= 9.7839E-01 tot_iter=      61 conv_iter=      20 cpu clock= 1.02E+00
 tran: time= 1.7334E+00 tot_iter=      65 conv_iter=      22 cpu clock= 1.02E+00
 tran: time= 2.4884E+00 tot_iter=      69 conv_iter=      24 cpu clock= 1.02E+00
 tran: time= 3.2434E+00 tot_iter=      73 conv_iter=      26 cpu clock= 1.02E+00
 tran: time= 3.9984E+00 tot_iter=      77 conv_iter=      28 cpu clock= 1.02E+00
 tran: time= 4.7534E+00 tot_iter=      81 conv_iter=      30 cpu clock= 1.02E+00
 tran: time= 5.5084E+00 tot_iter=      85 conv_iter=      32 cpu clock= 1.02E+00
 tran: time= 6.2634E+00 tot_iter=      89 conv_iter=      34 cpu clock= 1.02E+00
 tran: time= 7.0184E+00 tot_iter=      93 conv_iter=      36 cpu clock= 1.02E+00
 tran: time= 7.5500E+00 tot_iter=      97 conv_iter=      38 cpu clock= 1.02E+00
 sweep: tran tran15   end,  cpu clock=  1.02E+00 peak memory=       234 mb
 data: data=table           multiplier      =    1.60E+01
 dcop: begin dcop,  cpu clock=  1.06E+00
 dcop: end dcop,  cpu clock=  1.06E+00 peak memory=       234 mb  tot_iter=     160
 output: DRAM_MOSFET_Sweep.mt0
 sweep: tran tran16   begin, stop_t=  7.55E+00 #sweeps=**** cpu clock=  1.06E+00
 tran: time= 8.9093E-01 tot_iter=      64 conv_iter=      20 cpu clock= 1.07E+00
 tran: time= 1.6459E+00 tot_iter=      68 conv_iter=      22 cpu clock= 1.07E+00
 tran: time= 2.4009E+00 tot_iter=      72 conv_iter=      24 cpu clock= 1.07E+00
 tran: time= 3.1559E+00 tot_iter=      76 conv_iter=      26 cpu clock= 1.07E+00
 tran: time= 3.9109E+00 tot_iter=      80 conv_iter=      28 cpu clock= 1.07E+00
 tran: time= 4.6659E+00 tot_iter=      84 conv_iter=      30 cpu clock= 1.07E+00
 tran: time= 5.4209E+00 tot_iter=      88 conv_iter=      32 cpu clock= 1.07E+00
 tran: time= 6.1759E+00 tot_iter=      92 conv_iter=      34 cpu clock= 1.07E+00
 tran: time= 6.9309E+00 tot_iter=      96 conv_iter=      36 cpu clock= 1.07E+00
 tran: time= 7.5500E+00 tot_iter=     100 conv_iter=      38 cpu clock= 1.07E+00
 sweep: tran tran16   end,  cpu clock=  1.07E+00 peak memory=       234 mb
 data: data=table           multiplier      =    1.00E+00
 dcop: begin dcop,  cpu clock=  1.10E+00
 dcop: end dcop,  cpu clock=  1.10E+00 peak memory=       234 mb  tot_iter=     170
 output: DRAM_MOSFET_Sweep.mt0
 sweep: tran tran17   begin, stop_t=  7.55E+00 #sweeps=**** cpu clock=  1.10E+00
 tran: time= 9.3140E-01 tot_iter=      46 conv_iter=      18 cpu clock= 1.10E+00
 tran: time= 1.6864E+00 tot_iter=      51 conv_iter=      20 cpu clock= 1.10E+00
 tran: time= 2.4414E+00 tot_iter=      55 conv_iter=      22 cpu clock= 1.10E+00
 tran: time= 3.1964E+00 tot_iter=      59 conv_iter=      24 cpu clock= 1.10E+00
 tran: time= 3.9514E+00 tot_iter=      63 conv_iter=      26 cpu clock= 1.10E+00
 tran: time= 4.7064E+00 tot_iter=      67 conv_iter=      28 cpu clock= 1.10E+00
 tran: time= 5.4614E+00 tot_iter=      71 conv_iter=      30 cpu clock= 1.10E+00
 tran: time= 6.2164E+00 tot_iter=      75 conv_iter=      32 cpu clock= 1.10E+00
 tran: time= 6.9714E+00 tot_iter=      79 conv_iter=      34 cpu clock= 1.10E+00
 tran: time= 7.5500E+00 tot_iter=      83 conv_iter=      36 cpu clock= 1.10E+00
 sweep: tran tran17   end,  cpu clock=  1.10E+00 peak memory=       234 mb
 data: data=table           multiplier      =    2.00E+00
 dcop: begin dcop,  cpu clock=  1.14E+00
 dcop: end dcop,  cpu clock=  1.14E+00 peak memory=       234 mb  tot_iter=     180
 output: DRAM_MOSFET_Sweep.mt0
 sweep: tran tran18   begin, stop_t=  7.55E+00 #sweeps=**** cpu clock=  1.14E+00
 tran: time= 8.2809E-01 tot_iter=      45 conv_iter=      17 cpu clock= 1.14E+00
 tran: time= 1.5831E+00 tot_iter=      49 conv_iter=      19 cpu clock= 1.14E+00
 tran: time= 2.3381E+00 tot_iter=      53 conv_iter=      21 cpu clock= 1.14E+00
 tran: time= 3.0931E+00 tot_iter=      57 conv_iter=      23 cpu clock= 1.14E+00
 tran: time= 3.8481E+00 tot_iter=      61 conv_iter=      25 cpu clock= 1.14E+00
 tran: time= 4.6031E+00 tot_iter=      65 conv_iter=      27 cpu clock= 1.14E+00
 tran: time= 5.3581E+00 tot_iter=      69 conv_iter=      29 cpu clock= 1.14E+00
 tran: time= 6.1131E+00 tot_iter=      73 conv_iter=      31 cpu clock= 1.14E+00
 tran: time= 6.8681E+00 tot_iter=      77 conv_iter=      33 cpu clock= 1.14E+00
 tran: time= 7.5500E+00 tot_iter=      81 conv_iter=      35 cpu clock= 1.14E+00
 sweep: tran tran18   end,  cpu clock=  1.14E+00 peak memory=       234 mb
 data: data=table           multiplier      =    3.00E+00
 dcop: begin dcop,  cpu clock=  1.19E+00
 dcop: end dcop,  cpu clock=  1.19E+00 peak memory=       234 mb  tot_iter=     190
 output: DRAM_MOSFET_Sweep.mt0
 sweep: tran tran19   begin, stop_t=  7.55E+00 #sweeps=**** cpu clock=  1.19E+00
 tran: time= 1.0790E+00 tot_iter=      48 conv_iter=      17 cpu clock= 1.19E+00
 tran: time= 1.8340E+00 tot_iter=      52 conv_iter=      19 cpu clock= 1.19E+00
 tran: time= 2.5890E+00 tot_iter=      56 conv_iter=      21 cpu clock= 1.19E+00
 tran: time= 3.3440E+00 tot_iter=      60 conv_iter=      23 cpu clock= 1.19E+00
 tran: time= 4.0990E+00 tot_iter=      64 conv_iter=      25 cpu clock= 1.19E+00
 tran: time= 4.8540E+00 tot_iter=      68 conv_iter=      27 cpu clock= 1.19E+00
 tran: time= 5.6090E+00 tot_iter=      72 conv_iter=      29 cpu clock= 1.19E+00
 tran: time= 6.3640E+00 tot_iter=      76 conv_iter=      31 cpu clock= 1.19E+00
 tran: time= 7.1190E+00 tot_iter=      80 conv_iter=      33 cpu clock= 1.19E+00
 tran: time= 7.5500E+00 tot_iter=      84 conv_iter=      35 cpu clock= 1.19E+00
 sweep: tran tran19   end,  cpu clock=  1.19E+00 peak memory=       234 mb
 data: data=table           multiplier      =    4.00E+00
 dcop: begin dcop,  cpu clock=  1.23E+00
 dcop: end dcop,  cpu clock=  1.23E+00 peak memory=       234 mb  tot_iter=     200
 output: DRAM_MOSFET_Sweep.mt0
 sweep: tran tran20   begin, stop_t=  7.55E+00 #sweeps=**** cpu clock=  1.23E+00
 tran: time= 9.6785E-01 tot_iter=      51 conv_iter=      18 cpu clock= 1.23E+00
 tran: time= 1.7229E+00 tot_iter=      55 conv_iter=      20 cpu clock= 1.23E+00
 tran: time= 2.4779E+00 tot_iter=      59 conv_iter=      22 cpu clock= 1.23E+00
 tran: time= 3.2329E+00 tot_iter=      63 conv_iter=      24 cpu clock= 1.23E+00
 tran: time= 3.9879E+00 tot_iter=      67 conv_iter=      26 cpu clock= 1.23E+00
 tran: time= 4.7429E+00 tot_iter=      71 conv_iter=      28 cpu clock= 1.23E+00
 tran: time= 5.4979E+00 tot_iter=      75 conv_iter=      30 cpu clock= 1.23E+00
 tran: time= 6.2529E+00 tot_iter=      79 conv_iter=      32 cpu clock= 1.23E+00
 tran: time= 7.0079E+00 tot_iter=      83 conv_iter=      34 cpu clock= 1.23E+00
 tran: time= 7.5500E+00 tot_iter=      87 conv_iter=      36 cpu clock= 1.23E+00
 sweep: tran tran20   end,  cpu clock=  1.23E+00 peak memory=       234 mb
 data: data=table           multiplier      =    5.00E+00
 dcop: begin dcop,  cpu clock=  1.27E+00
 dcop: end dcop,  cpu clock=  1.27E+00 peak memory=       234 mb  tot_iter=     210
 output: DRAM_MOSFET_Sweep.mt0
 sweep: tran tran21   begin, stop_t=  7.55E+00 #sweeps=**** cpu clock=  1.27E+00
 tran: time= 1.0742E+00 tot_iter=      55 conv_iter=      19 cpu clock= 1.27E+00
 tran: time= 1.8292E+00 tot_iter=      59 conv_iter=      21 cpu clock= 1.27E+00
 tran: time= 2.5842E+00 tot_iter=      63 conv_iter=      23 cpu clock= 1.27E+00
 tran: time= 3.3392E+00 tot_iter=      67 conv_iter=      25 cpu clock= 1.27E+00
 tran: time= 4.0942E+00 tot_iter=      71 conv_iter=      27 cpu clock= 1.27E+00
 tran: time= 4.8492E+00 tot_iter=      75 conv_iter=      29 cpu clock= 1.27E+00
 tran: time= 5.6042E+00 tot_iter=      79 conv_iter=      31 cpu clock= 1.27E+00
 tran: time= 6.3592E+00 tot_iter=      83 conv_iter=      33 cpu clock= 1.27E+00
 tran: time= 7.1142E+00 tot_iter=      87 conv_iter=      35 cpu clock= 1.27E+00
 tran: time= 7.5500E+00 tot_iter=      91 conv_iter=      37 cpu clock= 1.27E+00
 sweep: tran tran21   end,  cpu clock=  1.27E+00 peak memory=       234 mb
 data: data=table           multiplier      =    6.00E+00
 dcop: begin dcop,  cpu clock=  1.31E+00
 dcop: end dcop,  cpu clock=  1.31E+00 peak memory=       234 mb  tot_iter=     220
 output: DRAM_MOSFET_Sweep.mt0
 sweep: tran tran22   begin, stop_t=  7.55E+00 #sweeps=**** cpu clock=  1.31E+00
 tran: time= 8.3868E-01 tot_iter=      56 conv_iter=      19 cpu clock= 1.31E+00
 tran: time= 1.5937E+00 tot_iter=      60 conv_iter=      21 cpu clock= 1.31E+00
 tran: time= 2.3487E+00 tot_iter=      64 conv_iter=      23 cpu clock= 1.31E+00
 tran: time= 3.1037E+00 tot_iter=      68 conv_iter=      25 cpu clock= 1.31E+00
 tran: time= 3.8587E+00 tot_iter=      72 conv_iter=      27 cpu clock= 1.31E+00
 tran: time= 4.6137E+00 tot_iter=      76 conv_iter=      29 cpu clock= 1.31E+00
 tran: time= 5.3687E+00 tot_iter=      80 conv_iter=      31 cpu clock= 1.31E+00
 tran: time= 6.1237E+00 tot_iter=      84 conv_iter=      33 cpu clock= 1.31E+00
 tran: time= 6.8787E+00 tot_iter=      88 conv_iter=      35 cpu clock= 1.31E+00
 tran: time= 7.5500E+00 tot_iter=      92 conv_iter=      37 cpu clock= 1.31E+00
 sweep: tran tran22   end,  cpu clock=  1.31E+00 peak memory=       234 mb
 data: data=table           multiplier      =    7.00E+00
 dcop: begin dcop,  cpu clock=  1.35E+00
 dcop: end dcop,  cpu clock=  1.35E+00 peak memory=       234 mb  tot_iter=     230
 output: DRAM_MOSFET_Sweep.mt0
 sweep: tran tran23   begin, stop_t=  7.55E+00 #sweeps=**** cpu clock=  1.35E+00
 tran: time= 8.4427E-01 tot_iter=      55 conv_iter=      19 cpu clock= 1.35E+00
 tran: time= 1.5993E+00 tot_iter=      59 conv_iter=      21 cpu clock= 1.35E+00
 tran: time= 2.3543E+00 tot_iter=      63 conv_iter=      23 cpu clock= 1.35E+00
 tran: time= 3.1093E+00 tot_iter=      67 conv_iter=      25 cpu clock= 1.35E+00
 tran: time= 3.8643E+00 tot_iter=      71 conv_iter=      27 cpu clock= 1.35E+00
 tran: time= 4.6193E+00 tot_iter=      75 conv_iter=      29 cpu clock= 1.35E+00
 tran: time= 5.3743E+00 tot_iter=      79 conv_iter=      31 cpu clock= 1.35E+00
 tran: time= 6.1293E+00 tot_iter=      83 conv_iter=      33 cpu clock= 1.35E+00
 tran: time= 6.8843E+00 tot_iter=      87 conv_iter=      35 cpu clock= 1.35E+00
 tran: time= 7.5500E+00 tot_iter=      91 conv_iter=      37 cpu clock= 1.35E+00
 sweep: tran tran23   end,  cpu clock=  1.35E+00 peak memory=       234 mb
 data: data=table           multiplier      =    8.00E+00
 dcop: begin dcop,  cpu clock=  1.39E+00
 dcop: end dcop,  cpu clock=  1.39E+00 peak memory=       234 mb  tot_iter=     240
 output: DRAM_MOSFET_Sweep.mt0
 sweep: tran tran24   begin, stop_t=  7.55E+00 #sweeps=**** cpu clock=  1.39E+00
 tran: time= 1.0077E+00 tot_iter=      55 conv_iter=      19 cpu clock= 1.39E+00
 tran: time= 1.7627E+00 tot_iter=      59 conv_iter=      21 cpu clock= 1.39E+00
 tran: time= 2.5177E+00 tot_iter=      63 conv_iter=      23 cpu clock= 1.39E+00
 tran: time= 3.2727E+00 tot_iter=      67 conv_iter=      25 cpu clock= 1.39E+00
 tran: time= 4.0277E+00 tot_iter=      71 conv_iter=      27 cpu clock= 1.39E+00
 tran: time= 4.7827E+00 tot_iter=      75 conv_iter=      29 cpu clock= 1.39E+00
 tran: time= 5.5377E+00 tot_iter=      79 conv_iter=      31 cpu clock= 1.39E+00
 tran: time= 6.2927E+00 tot_iter=      83 conv_iter=      33 cpu clock= 1.39E+00
 tran: time= 7.0477E+00 tot_iter=      87 conv_iter=      35 cpu clock= 1.39E+00
 tran: time= 7.5500E+00 tot_iter=      91 conv_iter=      37 cpu clock= 1.39E+00
 sweep: tran tran24   end,  cpu clock=  1.39E+00 peak memory=       234 mb
 data: data=table           multiplier      =    9.00E+00
 dcop: begin dcop,  cpu clock=  1.43E+00
 dcop: end dcop,  cpu clock=  1.43E+00 peak memory=       234 mb  tot_iter=     250
 output: DRAM_MOSFET_Sweep.mt0
 sweep: tran tran25   begin, stop_t=  7.55E+00 #sweeps=**** cpu clock=  1.43E+00
 tran: time= 9.1932E-01 tot_iter=      54 conv_iter=      18 cpu clock= 1.43E+00
 tran: time= 1.6743E+00 tot_iter=      58 conv_iter=      20 cpu clock= 1.43E+00
 tran: time= 2.4293E+00 tot_iter=      62 conv_iter=      22 cpu clock= 1.43E+00
 tran: time= 3.1843E+00 tot_iter=      66 conv_iter=      24 cpu clock= 1.43E+00
 tran: time= 3.9393E+00 tot_iter=      70 conv_iter=      26 cpu clock= 1.43E+00
 tran: time= 4.6943E+00 tot_iter=      74 conv_iter=      28 cpu clock= 1.43E+00
 tran: time= 5.4493E+00 tot_iter=      78 conv_iter=      30 cpu clock= 1.43E+00
 tran: time= 6.2043E+00 tot_iter=      82 conv_iter=      32 cpu clock= 1.43E+00
 tran: time= 6.9593E+00 tot_iter=      86 conv_iter=      34 cpu clock= 1.43E+00
 tran: time= 7.5500E+00 tot_iter=      90 conv_iter=      36 cpu clock= 1.43E+00
 sweep: tran tran25   end,  cpu clock=  1.43E+00 peak memory=       234 mb
 data: data=table           multiplier      =    1.00E+01
 dcop: begin dcop,  cpu clock=  1.47E+00
 dcop: end dcop,  cpu clock=  1.47E+00 peak memory=       234 mb  tot_iter=     260
 output: DRAM_MOSFET_Sweep.mt0
 sweep: tran tran26   begin, stop_t=  7.55E+00 #sweeps=**** cpu clock=  1.47E+00
 tran: time= 1.1324E+00 tot_iter=      61 conv_iter=      20 cpu clock= 1.47E+00
 tran: time= 1.8874E+00 tot_iter=      65 conv_iter=      22 cpu clock= 1.47E+00
 tran: time= 2.6424E+00 tot_iter=      69 conv_iter=      24 cpu clock= 1.47E+00
 tran: time= 3.3974E+00 tot_iter=      73 conv_iter=      26 cpu clock= 1.47E+00
 tran: time= 4.1524E+00 tot_iter=      77 conv_iter=      28 cpu clock= 1.47E+00
 tran: time= 4.9074E+00 tot_iter=      81 conv_iter=      30 cpu clock= 1.47E+00
 tran: time= 5.6624E+00 tot_iter=      85 conv_iter=      32 cpu clock= 1.47E+00
 tran: time= 6.4174E+00 tot_iter=      89 conv_iter=      34 cpu clock= 1.47E+00
 tran: time= 7.1724E+00 tot_iter=      93 conv_iter=      36 cpu clock= 1.47E+00
 tran: time= 7.5500E+00 tot_iter=      95 conv_iter=      37 cpu clock= 1.47E+00
 sweep: tran tran26   end,  cpu clock=  1.47E+00 peak memory=       234 mb
 data: data=table           multiplier      =    1.10E+01
 dcop: begin dcop,  cpu clock=  1.50E+00
 dcop: end dcop,  cpu clock=  1.50E+00 peak memory=       234 mb  tot_iter=     270
 output: DRAM_MOSFET_Sweep.mt0
 sweep: tran tran27   begin, stop_t=  7.55E+00 #sweeps=**** cpu clock=  1.50E+00
 tran: time= 8.3672E-01 tot_iter=      63 conv_iter=      20 cpu clock= 1.50E+00
 tran: time= 1.5917E+00 tot_iter=      67 conv_iter=      22 cpu clock= 1.50E+00
 tran: time= 2.3467E+00 tot_iter=      71 conv_iter=      24 cpu clock= 1.50E+00
 tran: time= 3.1017E+00 tot_iter=      75 conv_iter=      26 cpu clock= 1.50E+00
 tran: time= 3.8567E+00 tot_iter=      79 conv_iter=      28 cpu clock= 1.50E+00
 tran: time= 4.6117E+00 tot_iter=      83 conv_iter=      30 cpu clock= 1.50E+00
 tran: time= 5.3667E+00 tot_iter=      87 conv_iter=      32 cpu clock= 1.50E+00
 tran: time= 6.1217E+00 tot_iter=      91 conv_iter=      34 cpu clock= 1.50E+00
 tran: time= 6.8767E+00 tot_iter=      95 conv_iter=      36 cpu clock= 1.50E+00
 tran: time= 7.5500E+00 tot_iter=      99 conv_iter=      38 cpu clock= 1.50E+00
 sweep: tran tran27   end,  cpu clock=  1.50E+00 peak memory=       234 mb
 data: data=table           multiplier      =    1.20E+01
 dcop: begin dcop,  cpu clock=  1.54E+00
 dcop: end dcop,  cpu clock=  1.54E+00 peak memory=       234 mb  tot_iter=     280
 output: DRAM_MOSFET_Sweep.mt0
 sweep: tran tran28   begin, stop_t=  7.55E+00 #sweeps=**** cpu clock=  1.54E+00
 tran: time= 1.0819E+00 tot_iter=      66 conv_iter=      21 cpu clock= 1.54E+00
 tran: time= 1.8369E+00 tot_iter=      70 conv_iter=      23 cpu clock= 1.54E+00
 tran: time= 2.5919E+00 tot_iter=      74 conv_iter=      25 cpu clock= 1.54E+00
 tran: time= 3.3469E+00 tot_iter=      78 conv_iter=      27 cpu clock= 1.54E+00
 tran: time= 4.1019E+00 tot_iter=      82 conv_iter=      29 cpu clock= 1.54E+00
 tran: time= 4.8569E+00 tot_iter=      86 conv_iter=      31 cpu clock= 1.54E+00
 tran: time= 5.6119E+00 tot_iter=      90 conv_iter=      33 cpu clock= 1.54E+00
 tran: time= 6.3669E+00 tot_iter=      94 conv_iter=      35 cpu clock= 1.54E+00
 tran: time= 7.1219E+00 tot_iter=      98 conv_iter=      37 cpu clock= 1.54E+00
 tran: time= 7.5500E+00 tot_iter=     102 conv_iter=      39 cpu clock= 1.54E+00
 sweep: tran tran28   end,  cpu clock=  1.54E+00 peak memory=       234 mb
 data: data=table           multiplier      =    1.30E+01
 dcop: begin dcop,  cpu clock=  1.58E+00
 dcop: end dcop,  cpu clock=  1.58E+00 peak memory=       234 mb  tot_iter=     290
 output: DRAM_MOSFET_Sweep.mt0
 sweep: tran tran29   begin, stop_t=  7.55E+00 #sweeps=**** cpu clock=  1.59E+00
 tran: time= 9.8702E-01 tot_iter=      67 conv_iter=      21 cpu clock= 1.59E+00
 tran: time= 1.7420E+00 tot_iter=      71 conv_iter=      23 cpu clock= 1.59E+00
 tran: time= 2.4970E+00 tot_iter=      75 conv_iter=      25 cpu clock= 1.59E+00
 tran: time= 3.2520E+00 tot_iter=      79 conv_iter=      27 cpu clock= 1.59E+00
 tran: time= 4.0070E+00 tot_iter=      83 conv_iter=      29 cpu clock= 1.59E+00
 tran: time= 4.7620E+00 tot_iter=      87 conv_iter=      31 cpu clock= 1.59E+00
 tran: time= 5.5170E+00 tot_iter=      91 conv_iter=      33 cpu clock= 1.59E+00
 tran: time= 6.2720E+00 tot_iter=      95 conv_iter=      35 cpu clock= 1.59E+00
 tran: time= 7.0270E+00 tot_iter=      99 conv_iter=      37 cpu clock= 1.59E+00
 tran: time= 7.5500E+00 tot_iter=     103 conv_iter=      39 cpu clock= 1.59E+00
 sweep: tran tran29   end,  cpu clock=  1.59E+00 peak memory=       234 mb
 data: data=table           multiplier      =    1.40E+01
 dcop: begin dcop,  cpu clock=  1.62E+00
 dcop: end dcop,  cpu clock=  1.62E+00 peak memory=       234 mb  tot_iter=     300
 output: DRAM_MOSFET_Sweep.mt0
 sweep: tran tran30   begin, stop_t=  7.55E+00 #sweeps=**** cpu clock=  1.62E+00
 tran: time= 9.7304E-01 tot_iter=      66 conv_iter=      21 cpu clock= 1.62E+00
 tran: time= 1.7280E+00 tot_iter=      70 conv_iter=      23 cpu clock= 1.63E+00
 tran: time= 2.4830E+00 tot_iter=      74 conv_iter=      25 cpu clock= 1.63E+00
 tran: time= 3.2380E+00 tot_iter=      78 conv_iter=      27 cpu clock= 1.63E+00
 tran: time= 3.9930E+00 tot_iter=      82 conv_iter=      29 cpu clock= 1.63E+00
 tran: time= 4.7480E+00 tot_iter=      86 conv_iter=      31 cpu clock= 1.63E+00
 tran: time= 5.5030E+00 tot_iter=      90 conv_iter=      33 cpu clock= 1.63E+00
 tran: time= 6.2580E+00 tot_iter=      94 conv_iter=      35 cpu clock= 1.63E+00
 tran: time= 7.0130E+00 tot_iter=      98 conv_iter=      37 cpu clock= 1.63E+00
 tran: time= 7.5500E+00 tot_iter=     102 conv_iter=      39 cpu clock= 1.63E+00
 sweep: tran tran30   end,  cpu clock=  1.63E+00 peak memory=       234 mb
 data: data=table           multiplier      =    1.50E+01
 dcop: begin dcop,  cpu clock=  1.66E+00
 dcop: end dcop,  cpu clock=  1.66E+00 peak memory=       234 mb  tot_iter=     310
 output: DRAM_MOSFET_Sweep.mt0
 sweep: tran tran31   begin, stop_t=  7.55E+00 #sweeps=**** cpu clock=  1.66E+00
 tran: time= 9.6989E-01 tot_iter=      65 conv_iter=      21 cpu clock= 1.66E+00
 tran: time= 1.7249E+00 tot_iter=      69 conv_iter=      23 cpu clock= 1.66E+00
 tran: time= 2.4799E+00 tot_iter=      73 conv_iter=      25 cpu clock= 1.66E+00
 tran: time= 3.2349E+00 tot_iter=      77 conv_iter=      27 cpu clock= 1.66E+00
 tran: time= 3.9899E+00 tot_iter=      81 conv_iter=      29 cpu clock= 1.66E+00
 tran: time= 4.7449E+00 tot_iter=      85 conv_iter=      31 cpu clock= 1.66E+00
 tran: time= 5.4999E+00 tot_iter=      89 conv_iter=      33 cpu clock= 1.66E+00
 tran: time= 6.2549E+00 tot_iter=      93 conv_iter=      35 cpu clock= 1.66E+00
 tran: time= 7.0099E+00 tot_iter=      97 conv_iter=      37 cpu clock= 1.66E+00
 tran: time= 7.5500E+00 tot_iter=     101 conv_iter=      39 cpu clock= 1.66E+00
 sweep: tran tran31   end,  cpu clock=  1.66E+00 peak memory=       234 mb
 data: data=table           multiplier      =    1.60E+01
 dcop: begin dcop,  cpu clock=  1.70E+00
 dcop: end dcop,  cpu clock=  1.70E+00 peak memory=       234 mb  tot_iter=     320
 output: DRAM_MOSFET_Sweep.mt0
 sweep: tran tran32   begin, stop_t=  7.55E+00 #sweeps=**** cpu clock=  1.70E+00
 tran: time= 9.7603E-01 tot_iter=      64 conv_iter=      21 cpu clock= 1.70E+00
 tran: time= 1.7310E+00 tot_iter=      68 conv_iter=      23 cpu clock= 1.70E+00
 tran: time= 2.4860E+00 tot_iter=      72 conv_iter=      25 cpu clock= 1.70E+00
 tran: time= 3.2410E+00 tot_iter=      76 conv_iter=      27 cpu clock= 1.70E+00
 tran: time= 3.9960E+00 tot_iter=      80 conv_iter=      29 cpu clock= 1.70E+00
 tran: time= 4.7510E+00 tot_iter=      84 conv_iter=      31 cpu clock= 1.70E+00
 tran: time= 5.5060E+00 tot_iter=      88 conv_iter=      33 cpu clock= 1.70E+00
 tran: time= 6.2610E+00 tot_iter=      92 conv_iter=      35 cpu clock= 1.70E+00
 tran: time= 7.0160E+00 tot_iter=      96 conv_iter=      37 cpu clock= 1.70E+00
 tran: time= 7.5500E+00 tot_iter=     100 conv_iter=      39 cpu clock= 1.70E+00
 sweep: tran tran32   end,  cpu clock=  1.70E+00 peak memory=       234 mb
 data: data=table           multiplier      =    1.00E+00
 dcop: begin dcop,  cpu clock=  1.74E+00
 dcop: end dcop,  cpu clock=  1.74E+00 peak memory=       234 mb  tot_iter=     330
 output: DRAM_MOSFET_Sweep.mt0
 sweep: tran tran33   begin, stop_t=  7.55E+00 #sweeps=**** cpu clock=  1.74E+00
 tran: time= 8.1492E-01 tot_iter=      45 conv_iter=      18 cpu clock= 1.74E+00
 tran: time= 1.5699E+00 tot_iter=      49 conv_iter=      20 cpu clock= 1.74E+00
 tran: time= 2.3249E+00 tot_iter=      53 conv_iter=      22 cpu clock= 1.74E+00
 tran: time= 3.0799E+00 tot_iter=      57 conv_iter=      24 cpu clock= 1.74E+00
 tran: time= 3.8349E+00 tot_iter=      61 conv_iter=      26 cpu clock= 1.74E+00
 tran: time= 4.5899E+00 tot_iter=      65 conv_iter=      28 cpu clock= 1.74E+00
 tran: time= 5.3449E+00 tot_iter=      69 conv_iter=      30 cpu clock= 1.74E+00
 tran: time= 6.0999E+00 tot_iter=      73 conv_iter=      32 cpu clock= 1.74E+00
 tran: time= 6.8549E+00 tot_iter=      77 conv_iter=      34 cpu clock= 1.74E+00
 tran: time= 7.5500E+00 tot_iter=      81 conv_iter=      36 cpu clock= 1.74E+00
 sweep: tran tran33   end,  cpu clock=  1.74E+00 peak memory=       234 mb
 data: data=table           multiplier      =    2.00E+00
 dcop: begin dcop,  cpu clock=  1.78E+00
 dcop: end dcop,  cpu clock=  1.78E+00 peak memory=       234 mb  tot_iter=     340
 output: DRAM_MOSFET_Sweep.mt0
 sweep: tran tran34   begin, stop_t=  7.55E+00 #sweeps=**** cpu clock=  1.78E+00
 tran: time= 1.1145E+00 tot_iter=      47 conv_iter=      18 cpu clock= 1.78E+00
 tran: time= 1.8695E+00 tot_iter=      51 conv_iter=      20 cpu clock= 1.78E+00
 tran: time= 2.6245E+00 tot_iter=      55 conv_iter=      22 cpu clock= 1.78E+00
 tran: time= 3.3795E+00 tot_iter=      59 conv_iter=      24 cpu clock= 1.78E+00
 tran: time= 4.1345E+00 tot_iter=      63 conv_iter=      26 cpu clock= 1.78E+00
 tran: time= 4.8895E+00 tot_iter=      67 conv_iter=      28 cpu clock= 1.78E+00
 tran: time= 5.6445E+00 tot_iter=      71 conv_iter=      30 cpu clock= 1.78E+00
 tran: time= 6.3995E+00 tot_iter=      75 conv_iter=      32 cpu clock= 1.78E+00
 tran: time= 7.1545E+00 tot_iter=      79 conv_iter=      34 cpu clock= 1.78E+00
 tran: time= 7.5500E+00 tot_iter=      81 conv_iter=      35 cpu clock= 1.78E+00
 sweep: tran tran34   end,  cpu clock=  1.78E+00 peak memory=       234 mb
 data: data=table           multiplier      =    3.00E+00
 dcop: begin dcop,  cpu clock=  1.82E+00
 dcop: end dcop,  cpu clock=  1.82E+00 peak memory=       234 mb  tot_iter=     350
 output: DRAM_MOSFET_Sweep.mt0
 sweep: tran tran35   begin, stop_t=  7.55E+00 #sweeps=**** cpu clock=  1.82E+00
 tran: time= 1.1320E+00 tot_iter=      48 conv_iter=      18 cpu clock= 1.82E+00
 tran: time= 1.8870E+00 tot_iter=      52 conv_iter=      20 cpu clock= 1.82E+00
 tran: time= 2.6420E+00 tot_iter=      56 conv_iter=      22 cpu clock= 1.82E+00
 tran: time= 3.3970E+00 tot_iter=      60 conv_iter=      24 cpu clock= 1.82E+00
 tran: time= 4.1520E+00 tot_iter=      64 conv_iter=      26 cpu clock= 1.82E+00
 tran: time= 4.9070E+00 tot_iter=      68 conv_iter=      28 cpu clock= 1.82E+00
 tran: time= 5.6620E+00 tot_iter=      72 conv_iter=      30 cpu clock= 1.82E+00
 tran: time= 6.4170E+00 tot_iter=      76 conv_iter=      32 cpu clock= 1.82E+00
 tran: time= 7.1720E+00 tot_iter=      80 conv_iter=      34 cpu clock= 1.82E+00
 tran: time= 7.5500E+00 tot_iter=      82 conv_iter=      35 cpu clock= 1.82E+00
 sweep: tran tran35   end,  cpu clock=  1.82E+00 peak memory=       234 mb
 data: data=table           multiplier      =    4.00E+00
 dcop: begin dcop,  cpu clock=  1.85E+00
 dcop: end dcop,  cpu clock=  1.85E+00 peak memory=       234 mb  tot_iter=     360
 output: DRAM_MOSFET_Sweep.mt0
 sweep: tran tran36   begin, stop_t=  7.55E+00 #sweeps=**** cpu clock=  1.85E+00
 tran: time= 8.0726E-01 tot_iter=      47 conv_iter=      17 cpu clock= 1.85E+00
 tran: time= 1.5623E+00 tot_iter=      51 conv_iter=      19 cpu clock= 1.85E+00
 tran: time= 2.3173E+00 tot_iter=      55 conv_iter=      21 cpu clock= 1.85E+00
 tran: time= 3.0723E+00 tot_iter=      59 conv_iter=      23 cpu clock= 1.85E+00
 tran: time= 3.8273E+00 tot_iter=      63 conv_iter=      25 cpu clock= 1.85E+00
 tran: time= 4.5823E+00 tot_iter=      67 conv_iter=      27 cpu clock= 1.85E+00
 tran: time= 5.3373E+00 tot_iter=      71 conv_iter=      29 cpu clock= 1.85E+00
 tran: time= 6.0923E+00 tot_iter=      75 conv_iter=      31 cpu clock= 1.85E+00
 tran: time= 6.8473E+00 tot_iter=      79 conv_iter=      33 cpu clock= 1.85E+00
 tran: time= 7.5500E+00 tot_iter=      83 conv_iter=      35 cpu clock= 1.85E+00
 sweep: tran tran36   end,  cpu clock=  1.85E+00 peak memory=       234 mb
 data: data=table           multiplier      =    5.00E+00
 dcop: begin dcop,  cpu clock=  1.89E+00
 dcop: end dcop,  cpu clock=  1.89E+00 peak memory=       234 mb  tot_iter=     370
 output: DRAM_MOSFET_Sweep.mt0
 sweep: tran tran37   begin, stop_t=  7.55E+00 #sweeps=**** cpu clock=  1.89E+00
 tran: time= 8.7558E-01 tot_iter=      48 conv_iter=      17 cpu clock= 1.89E+00
 tran: time= 1.6306E+00 tot_iter=      52 conv_iter=      19 cpu clock= 1.89E+00
 tran: time= 2.3856E+00 tot_iter=      56 conv_iter=      21 cpu clock= 1.89E+00
 tran: time= 3.1406E+00 tot_iter=      60 conv_iter=      23 cpu clock= 1.89E+00
 tran: time= 3.8956E+00 tot_iter=      64 conv_iter=      25 cpu clock= 1.89E+00
 tran: time= 4.6506E+00 tot_iter=      68 conv_iter=      27 cpu clock= 1.89E+00
 tran: time= 5.4056E+00 tot_iter=      72 conv_iter=      29 cpu clock= 1.89E+00
 tran: time= 6.1606E+00 tot_iter=      76 conv_iter=      31 cpu clock= 1.89E+00
 tran: time= 6.9156E+00 tot_iter=      80 conv_iter=      33 cpu clock= 1.89E+00
 tran: time= 7.5500E+00 tot_iter=      84 conv_iter=      35 cpu clock= 1.90E+00
 sweep: tran tran37   end,  cpu clock=  1.90E+00 peak memory=       234 mb
 data: data=table           multiplier      =    6.00E+00
 dcop: begin dcop,  cpu clock=  1.93E+00
 dcop: end dcop,  cpu clock=  1.93E+00 peak memory=       234 mb  tot_iter=     380
 output: DRAM_MOSFET_Sweep.mt0
 sweep: tran tran38   begin, stop_t=  7.55E+00 #sweeps=**** cpu clock=  1.93E+00
 tran: time= 9.0028E-01 tot_iter=      49 conv_iter=      18 cpu clock= 1.93E+00
 tran: time= 1.6553E+00 tot_iter=      53 conv_iter=      20 cpu clock= 1.93E+00
 tran: time= 2.4103E+00 tot_iter=      57 conv_iter=      22 cpu clock= 1.93E+00
 tran: time= 3.1653E+00 tot_iter=      61 conv_iter=      24 cpu clock= 1.93E+00
 tran: time= 3.9203E+00 tot_iter=      65 conv_iter=      26 cpu clock= 1.93E+00
 tran: time= 4.6753E+00 tot_iter=      69 conv_iter=      28 cpu clock= 1.93E+00
 tran: time= 5.4303E+00 tot_iter=      73 conv_iter=      30 cpu clock= 1.93E+00
 tran: time= 6.1853E+00 tot_iter=      77 conv_iter=      32 cpu clock= 1.93E+00
 tran: time= 6.9403E+00 tot_iter=      81 conv_iter=      34 cpu clock= 1.93E+00
 tran: time= 7.5500E+00 tot_iter=      85 conv_iter=      36 cpu clock= 1.93E+00
 sweep: tran tran38   end,  cpu clock=  1.93E+00 peak memory=       234 mb
 data: data=table           multiplier      =    7.00E+00
 dcop: begin dcop,  cpu clock=  1.97E+00
 dcop: end dcop,  cpu clock=  1.97E+00 peak memory=       234 mb  tot_iter=     390
 output: DRAM_MOSFET_Sweep.mt0
 sweep: tran tran39   begin, stop_t=  7.55E+00 #sweeps=**** cpu clock=  1.97E+00
 tran: time= 7.5511E-01 tot_iter=      51 conv_iter=      18 cpu clock= 1.97E+00
 tran: time= 1.5101E+00 tot_iter=      55 conv_iter=      20 cpu clock= 1.97E+00
 tran: time= 2.2651E+00 tot_iter=      59 conv_iter=      22 cpu clock= 1.97E+00
 tran: time= 3.0201E+00 tot_iter=      63 conv_iter=      24 cpu clock= 1.97E+00
 tran: time= 3.7751E+00 tot_iter=      67 conv_iter=      26 cpu clock= 1.97E+00
 tran: time= 4.5301E+00 tot_iter=      71 conv_iter=      28 cpu clock= 1.97E+00
 tran: time= 5.2851E+00 tot_iter=      75 conv_iter=      30 cpu clock= 1.97E+00
 tran: time= 6.0401E+00 tot_iter=      79 conv_iter=      32 cpu clock= 1.97E+00
 tran: time= 6.7951E+00 tot_iter=      83 conv_iter=      34 cpu clock= 1.97E+00
 tran: time= 7.5500E+00 tot_iter=      87 conv_iter=      36 cpu clock= 1.97E+00
 sweep: tran tran39   end,  cpu clock=  1.97E+00 peak memory=       234 mb
 data: data=table           multiplier      =    8.00E+00
 dcop: begin dcop,  cpu clock=  2.01E+00
 dcop: end dcop,  cpu clock=  2.01E+00 peak memory=       234 mb  tot_iter=     400
 output: DRAM_MOSFET_Sweep.mt0
 sweep: tran tran40   begin, stop_t=  7.55E+00 #sweeps=**** cpu clock=  2.01E+00
 tran: time= 7.7425E-01 tot_iter=      53 conv_iter=      19 cpu clock= 2.01E+00
 tran: time= 1.5292E+00 tot_iter=      57 conv_iter=      21 cpu clock= 2.01E+00
 tran: time= 2.2842E+00 tot_iter=      61 conv_iter=      23 cpu clock= 2.01E+00
 tran: time= 3.0392E+00 tot_iter=      65 conv_iter=      25 cpu clock= 2.01E+00
 tran: time= 3.7942E+00 tot_iter=      69 conv_iter=      27 cpu clock= 2.01E+00
 tran: time= 4.5492E+00 tot_iter=      73 conv_iter=      29 cpu clock= 2.01E+00
 tran: time= 5.3042E+00 tot_iter=      77 conv_iter=      31 cpu clock= 2.01E+00
 tran: time= 6.0592E+00 tot_iter=      81 conv_iter=      33 cpu clock= 2.01E+00
 tran: time= 6.8142E+00 tot_iter=      85 conv_iter=      35 cpu clock= 2.01E+00
 tran: time= 7.5500E+00 tot_iter=      89 conv_iter=      37 cpu clock= 2.01E+00
 sweep: tran tran40   end,  cpu clock=  2.01E+00 peak memory=       234 mb
 data: data=table           multiplier      =    9.00E+00
 dcop: begin dcop,  cpu clock=  2.05E+00
 dcop: end dcop,  cpu clock=  2.05E+00 peak memory=       234 mb  tot_iter=     410
 output: DRAM_MOSFET_Sweep.mt0
 sweep: tran tran41   begin, stop_t=  7.55E+00 #sweeps=**** cpu clock=  2.05E+00
 tran: time= 1.1123E+00 tot_iter=      59 conv_iter=      20 cpu clock= 2.05E+00
 tran: time= 1.8673E+00 tot_iter=      63 conv_iter=      22 cpu clock= 2.05E+00
 tran: time= 2.6223E+00 tot_iter=      67 conv_iter=      24 cpu clock= 2.05E+00
 tran: time= 3.3773E+00 tot_iter=      71 conv_iter=      26 cpu clock= 2.05E+00
 tran: time= 4.1323E+00 tot_iter=      75 conv_iter=      28 cpu clock= 2.05E+00
 tran: time= 4.8873E+00 tot_iter=      79 conv_iter=      30 cpu clock= 2.05E+00
 tran: time= 5.6423E+00 tot_iter=      83 conv_iter=      32 cpu clock= 2.05E+00
 tran: time= 6.3973E+00 tot_iter=      87 conv_iter=      34 cpu clock= 2.05E+00
 tran: time= 7.1523E+00 tot_iter=      91 conv_iter=      36 cpu clock= 2.05E+00
 tran: time= 7.5500E+00 tot_iter=      93 conv_iter=      37 cpu clock= 2.05E+00
 sweep: tran tran41   end,  cpu clock=  2.05E+00 peak memory=       234 mb
 data: data=table           multiplier      =    1.00E+01
 dcop: begin dcop,  cpu clock=  2.09E+00
 dcop: end dcop,  cpu clock=  2.09E+00 peak memory=       234 mb  tot_iter=     420
 output: DRAM_MOSFET_Sweep.mt0
 sweep: tran tran42   begin, stop_t=  7.55E+00 #sweeps=**** cpu clock=  2.09E+00
 tran: time= 9.5629E-01 tot_iter=      59 conv_iter=      20 cpu clock= 2.09E+00
 tran: time= 1.7113E+00 tot_iter=      63 conv_iter=      22 cpu clock= 2.09E+00
 tran: time= 2.4663E+00 tot_iter=      67 conv_iter=      24 cpu clock= 2.09E+00
 tran: time= 3.2213E+00 tot_iter=      71 conv_iter=      26 cpu clock= 2.09E+00
 tran: time= 3.9763E+00 tot_iter=      75 conv_iter=      28 cpu clock= 2.09E+00
 tran: time= 4.7313E+00 tot_iter=      79 conv_iter=      30 cpu clock= 2.09E+00
 tran: time= 5.4863E+00 tot_iter=      83 conv_iter=      32 cpu clock= 2.09E+00
 tran: time= 6.2413E+00 tot_iter=      87 conv_iter=      34 cpu clock= 2.09E+00
 tran: time= 6.9963E+00 tot_iter=      91 conv_iter=      36 cpu clock= 2.09E+00
 tran: time= 7.5500E+00 tot_iter=      95 conv_iter=      38 cpu clock= 2.09E+00
 sweep: tran tran42   end,  cpu clock=  2.09E+00 peak memory=       234 mb
 data: data=table           multiplier      =    1.10E+01
 dcop: begin dcop,  cpu clock=  2.13E+00
 dcop: end dcop,  cpu clock=  2.13E+00 peak memory=       234 mb  tot_iter=     430
 output: DRAM_MOSFET_Sweep.mt0
 sweep: tran tran43   begin, stop_t=  7.55E+00 #sweeps=**** cpu clock=  2.13E+00
 tran: time= 9.4748E-01 tot_iter=      62 conv_iter=      20 cpu clock= 2.13E+00
 tran: time= 1.7025E+00 tot_iter=      66 conv_iter=      22 cpu clock= 2.13E+00
 tran: time= 2.4575E+00 tot_iter=      70 conv_iter=      24 cpu clock= 2.13E+00
 tran: time= 3.2125E+00 tot_iter=      74 conv_iter=      26 cpu clock= 2.13E+00
 tran: time= 3.9675E+00 tot_iter=      78 conv_iter=      28 cpu clock= 2.13E+00
 tran: time= 4.7225E+00 tot_iter=      82 conv_iter=      30 cpu clock= 2.13E+00
 tran: time= 5.4775E+00 tot_iter=      86 conv_iter=      32 cpu clock= 2.13E+00
 tran: time= 6.2325E+00 tot_iter=      90 conv_iter=      34 cpu clock= 2.13E+00
 tran: time= 6.9875E+00 tot_iter=      94 conv_iter=      36 cpu clock= 2.13E+00
 tran: time= 7.5500E+00 tot_iter=      98 conv_iter=      38 cpu clock= 2.13E+00
 sweep: tran tran43   end,  cpu clock=  2.13E+00 peak memory=       234 mb
 data: data=table           multiplier      =    1.20E+01
 dcop: begin dcop,  cpu clock=  2.17E+00
 dcop: end dcop,  cpu clock=  2.17E+00 peak memory=       234 mb  tot_iter=     440
 output: DRAM_MOSFET_Sweep.mt0
 sweep: tran tran44   begin, stop_t=  7.55E+00 #sweeps=**** cpu clock=  2.17E+00
 tran: time= 9.7550E-01 tot_iter=      60 conv_iter=      20 cpu clock= 2.17E+00
 tran: time= 1.7305E+00 tot_iter=      64 conv_iter=      22 cpu clock= 2.17E+00
 tran: time= 2.4855E+00 tot_iter=      68 conv_iter=      24 cpu clock= 2.17E+00
 tran: time= 3.2405E+00 tot_iter=      72 conv_iter=      26 cpu clock= 2.17E+00
 tran: time= 3.9955E+00 tot_iter=      76 conv_iter=      28 cpu clock= 2.17E+00
 tran: time= 4.7505E+00 tot_iter=      80 conv_iter=      30 cpu clock= 2.17E+00
 tran: time= 5.5055E+00 tot_iter=      84 conv_iter=      32 cpu clock= 2.17E+00
 tran: time= 6.2605E+00 tot_iter=      88 conv_iter=      34 cpu clock= 2.17E+00
 tran: time= 7.0155E+00 tot_iter=      92 conv_iter=      36 cpu clock= 2.17E+00
 tran: time= 7.5500E+00 tot_iter=      96 conv_iter=      38 cpu clock= 2.17E+00
 sweep: tran tran44   end,  cpu clock=  2.17E+00 peak memory=       234 mb
 data: data=table           multiplier      =    1.30E+01
 dcop: begin dcop,  cpu clock=  2.21E+00
 dcop: end dcop,  cpu clock=  2.21E+00 peak memory=       234 mb  tot_iter=     450
 output: DRAM_MOSFET_Sweep.mt0
 sweep: tran tran45   begin, stop_t=  7.55E+00 #sweeps=**** cpu clock=  2.21E+00
 tran: time= 1.0603E+00 tot_iter=      61 conv_iter=      20 cpu clock= 2.21E+00
 tran: time= 1.8153E+00 tot_iter=      65 conv_iter=      22 cpu clock= 2.21E+00
 tran: time= 2.5703E+00 tot_iter=      69 conv_iter=      24 cpu clock= 2.21E+00
 tran: time= 3.3253E+00 tot_iter=      73 conv_iter=      26 cpu clock= 2.21E+00
 tran: time= 4.0803E+00 tot_iter=      77 conv_iter=      28 cpu clock= 2.21E+00
 tran: time= 4.8353E+00 tot_iter=      81 conv_iter=      30 cpu clock= 2.21E+00
 tran: time= 5.5903E+00 tot_iter=      85 conv_iter=      32 cpu clock= 2.21E+00
 tran: time= 6.3453E+00 tot_iter=      89 conv_iter=      34 cpu clock= 2.21E+00
 tran: time= 7.1003E+00 tot_iter=      93 conv_iter=      36 cpu clock= 2.21E+00
 tran: time= 7.5500E+00 tot_iter=      97 conv_iter=      38 cpu clock= 2.21E+00
 sweep: tran tran45   end,  cpu clock=  2.21E+00 peak memory=       234 mb
 data: data=table           multiplier      =    1.40E+01
 dcop: begin dcop,  cpu clock=  2.25E+00
 dcop: end dcop,  cpu clock=  2.25E+00 peak memory=       234 mb  tot_iter=     460
 output: DRAM_MOSFET_Sweep.mt0
 sweep: tran tran46   begin, stop_t=  7.55E+00 #sweeps=**** cpu clock=  2.25E+00
 tran: time= 7.8782E-01 tot_iter=      58 conv_iter=      19 cpu clock= 2.25E+00
 tran: time= 1.5428E+00 tot_iter=      62 conv_iter=      21 cpu clock= 2.25E+00
 tran: time= 2.2978E+00 tot_iter=      66 conv_iter=      23 cpu clock= 2.25E+00
 tran: time= 3.0528E+00 tot_iter=      70 conv_iter=      25 cpu clock= 2.25E+00
 tran: time= 3.8078E+00 tot_iter=      74 conv_iter=      27 cpu clock= 2.25E+00
 tran: time= 4.5628E+00 tot_iter=      78 conv_iter=      29 cpu clock= 2.25E+00
 tran: time= 5.3178E+00 tot_iter=      82 conv_iter=      31 cpu clock= 2.25E+00
 tran: time= 6.0728E+00 tot_iter=      86 conv_iter=      33 cpu clock= 2.25E+00
 tran: time= 6.8278E+00 tot_iter=      90 conv_iter=      35 cpu clock= 2.25E+00
 tran: time= 7.5500E+00 tot_iter=      94 conv_iter=      37 cpu clock= 2.25E+00
 sweep: tran tran46   end,  cpu clock=  2.25E+00 peak memory=       234 mb
 data: data=table           multiplier      =    1.50E+01
 dcop: begin dcop,  cpu clock=  2.29E+00
 dcop: end dcop,  cpu clock=  2.29E+00 peak memory=       234 mb  tot_iter=     470
 output: DRAM_MOSFET_Sweep.mt0
 sweep: tran tran47   begin, stop_t=  7.55E+00 #sweeps=**** cpu clock=  2.29E+00
 tran: time= 8.8464E-01 tot_iter=      58 conv_iter=      19 cpu clock= 2.29E+00
 tran: time= 1.6396E+00 tot_iter=      62 conv_iter=      21 cpu clock= 2.29E+00
 tran: time= 2.3946E+00 tot_iter=      66 conv_iter=      23 cpu clock= 2.29E+00
 tran: time= 3.1496E+00 tot_iter=      70 conv_iter=      25 cpu clock= 2.29E+00
 tran: time= 3.9046E+00 tot_iter=      74 conv_iter=      27 cpu clock= 2.29E+00
 tran: time= 4.6596E+00 tot_iter=      78 conv_iter=      29 cpu clock= 2.29E+00
 tran: time= 5.4146E+00 tot_iter=      82 conv_iter=      31 cpu clock= 2.29E+00
 tran: time= 6.1696E+00 tot_iter=      86 conv_iter=      33 cpu clock= 2.29E+00
 tran: time= 6.9246E+00 tot_iter=      90 conv_iter=      35 cpu clock= 2.29E+00
 tran: time= 7.5500E+00 tot_iter=      94 conv_iter=      37 cpu clock= 2.29E+00
 sweep: tran tran47   end,  cpu clock=  2.29E+00 peak memory=       234 mb
 data: data=table           multiplier      =    1.60E+01
 dcop: begin dcop,  cpu clock=  2.33E+00
 dcop: end dcop,  cpu clock=  2.33E+00 peak memory=       234 mb  tot_iter=     480
 output: DRAM_MOSFET_Sweep.mt0
 sweep: tran tran48   begin, stop_t=  7.55E+00 #sweeps=**** cpu clock=  2.33E+00
 tran: time= 1.0751E+00 tot_iter=      59 conv_iter=      19 cpu clock= 2.33E+00
 tran: time= 1.8301E+00 tot_iter=      63 conv_iter=      21 cpu clock= 2.33E+00
 tran: time= 2.5851E+00 tot_iter=      67 conv_iter=      23 cpu clock= 2.33E+00
 tran: time= 3.3401E+00 tot_iter=      71 conv_iter=      25 cpu clock= 2.33E+00
 tran: time= 4.0951E+00 tot_iter=      75 conv_iter=      27 cpu clock= 2.33E+00
 tran: time= 4.8501E+00 tot_iter=      79 conv_iter=      29 cpu clock= 2.33E+00
 tran: time= 5.6051E+00 tot_iter=      83 conv_iter=      31 cpu clock= 2.33E+00
 tran: time= 6.3601E+00 tot_iter=      87 conv_iter=      33 cpu clock= 2.33E+00
 tran: time= 7.1151E+00 tot_iter=      91 conv_iter=      35 cpu clock= 2.33E+00
 tran: time= 7.5500E+00 tot_iter=      95 conv_iter=      37 cpu clock= 2.33E+00
 sweep: tran tran48   end,  cpu clock=  2.33E+00 peak memory=       234 mb
 data: data=table           multiplier      =    1.00E+00
 dcop: begin dcop,  cpu clock=  2.37E+00
 dcop: end dcop,  cpu clock=  2.37E+00 peak memory=       234 mb  tot_iter=     490
 output: DRAM_MOSFET_Sweep.mt0
 sweep: tran tran49   begin, stop_t=  7.55E+00 #sweeps=**** cpu clock=  2.37E+00
 tran: time= 9.2238E-01 tot_iter=      46 conv_iter=      19 cpu clock= 2.37E+00
 tran: time= 1.6774E+00 tot_iter=      50 conv_iter=      21 cpu clock= 2.37E+00
 tran: time= 2.4324E+00 tot_iter=      54 conv_iter=      23 cpu clock= 2.37E+00
 tran: time= 3.1874E+00 tot_iter=      58 conv_iter=      25 cpu clock= 2.37E+00
 tran: time= 3.9424E+00 tot_iter=      62 conv_iter=      27 cpu clock= 2.37E+00
 tran: time= 4.6974E+00 tot_iter=      66 conv_iter=      29 cpu clock= 2.37E+00
 tran: time= 5.4524E+00 tot_iter=      71 conv_iter=      31 cpu clock= 2.37E+00
 tran: time= 6.2074E+00 tot_iter=      75 conv_iter=      33 cpu clock= 2.37E+00
 tran: time= 6.9624E+00 tot_iter=      79 conv_iter=      35 cpu clock= 2.37E+00
 tran: time= 7.5500E+00 tot_iter=      83 conv_iter=      37 cpu clock= 2.37E+00
 sweep: tran tran49   end,  cpu clock=  2.37E+00 peak memory=       234 mb
 data: data=table           multiplier      =    2.00E+00
 dcop: begin dcop,  cpu clock=  2.41E+00
 dcop: end dcop,  cpu clock=  2.41E+00 peak memory=       234 mb  tot_iter=     500
 output: DRAM_MOSFET_Sweep.mt0
 sweep: tran tran50   begin, stop_t=  7.55E+00 #sweeps=**** cpu clock=  2.41E+00
 tran: time= 1.0847E+00 tot_iter=      46 conv_iter=      19 cpu clock= 2.41E+00
 tran: time= 1.8397E+00 tot_iter=      50 conv_iter=      21 cpu clock= 2.41E+00
 tran: time= 2.5947E+00 tot_iter=      54 conv_iter=      23 cpu clock= 2.41E+00
 tran: time= 3.3497E+00 tot_iter=      58 conv_iter=      25 cpu clock= 2.41E+00
 tran: time= 4.1047E+00 tot_iter=      62 conv_iter=      27 cpu clock= 2.41E+00
 tran: time= 4.8597E+00 tot_iter=      66 conv_iter=      29 cpu clock= 2.41E+00
 tran: time= 5.6147E+00 tot_iter=      70 conv_iter=      31 cpu clock= 2.41E+00
 tran: time= 6.3697E+00 tot_iter=      74 conv_iter=      33 cpu clock= 2.41E+00
 tran: time= 7.1247E+00 tot_iter=      78 conv_iter=      35 cpu clock= 2.41E+00
 tran: time= 7.5500E+00 tot_iter=      82 conv_iter=      37 cpu clock= 2.41E+00
 sweep: tran tran50   end,  cpu clock=  2.41E+00 peak memory=       234 mb
 data: data=table           multiplier      =    3.00E+00
 dcop: begin dcop,  cpu clock=  2.45E+00
 dcop: end dcop,  cpu clock=  2.45E+00 peak memory=       234 mb  tot_iter=     510
 output: DRAM_MOSFET_Sweep.mt0
 sweep: tran tran51   begin, stop_t=  7.55E+00 #sweeps=**** cpu clock=  2.45E+00
 tran: time= 9.2049E-01 tot_iter=      46 conv_iter=      18 cpu clock= 2.45E+00
 tran: time= 1.6755E+00 tot_iter=      50 conv_iter=      20 cpu clock= 2.45E+00
 tran: time= 2.4305E+00 tot_iter=      54 conv_iter=      22 cpu clock= 2.45E+00
 tran: time= 3.1855E+00 tot_iter=      58 conv_iter=      24 cpu clock= 2.45E+00
 tran: time= 3.9405E+00 tot_iter=      62 conv_iter=      26 cpu clock= 2.45E+00
 tran: time= 4.6955E+00 tot_iter=      66 conv_iter=      28 cpu clock= 2.45E+00
 tran: time= 5.4505E+00 tot_iter=      70 conv_iter=      30 cpu clock= 2.45E+00
 tran: time= 6.2055E+00 tot_iter=      74 conv_iter=      32 cpu clock= 2.45E+00
 tran: time= 6.9605E+00 tot_iter=      78 conv_iter=      34 cpu clock= 2.45E+00
 tran: time= 7.5500E+00 tot_iter=      82 conv_iter=      36 cpu clock= 2.45E+00
 sweep: tran tran51   end,  cpu clock=  2.45E+00 peak memory=       234 mb
 data: data=table           multiplier      =    4.00E+00
 dcop: begin dcop,  cpu clock=  2.49E+00
 dcop: end dcop,  cpu clock=  2.49E+00 peak memory=       234 mb  tot_iter=     520
 output: DRAM_MOSFET_Sweep.mt0
 sweep: tran tran52   begin, stop_t=  7.55E+00 #sweeps=**** cpu clock=  2.49E+00
 tran: time= 8.3056E-01 tot_iter=      47 conv_iter=      18 cpu clock= 2.49E+00
 tran: time= 1.5856E+00 tot_iter=      51 conv_iter=      20 cpu clock= 2.49E+00
 tran: time= 2.3406E+00 tot_iter=      55 conv_iter=      22 cpu clock= 2.49E+00
 tran: time= 3.0956E+00 tot_iter=      59 conv_iter=      24 cpu clock= 2.49E+00
 tran: time= 3.8506E+00 tot_iter=      63 conv_iter=      26 cpu clock= 2.49E+00
 tran: time= 4.6056E+00 tot_iter=      67 conv_iter=      28 cpu clock= 2.49E+00
 tran: time= 5.3606E+00 tot_iter=      71 conv_iter=      30 cpu clock= 2.49E+00
 tran: time= 6.1156E+00 tot_iter=      75 conv_iter=      32 cpu clock= 2.49E+00
 tran: time= 6.8706E+00 tot_iter=      79 conv_iter=      34 cpu clock= 2.49E+00
 tran: time= 7.5500E+00 tot_iter=      83 conv_iter=      36 cpu clock= 2.49E+00
 sweep: tran tran52   end,  cpu clock=  2.49E+00 peak memory=       234 mb
 data: data=table           multiplier      =    5.00E+00
 dcop: begin dcop,  cpu clock=  2.53E+00
 dcop: end dcop,  cpu clock=  2.53E+00 peak memory=       234 mb  tot_iter=     530
 output: DRAM_MOSFET_Sweep.mt0
 sweep: tran tran53   begin, stop_t=  7.55E+00 #sweeps=**** cpu clock=  2.53E+00
 tran: time= 9.3128E-01 tot_iter=      47 conv_iter=      18 cpu clock= 2.53E+00
 tran: time= 1.6863E+00 tot_iter=      51 conv_iter=      20 cpu clock= 2.53E+00
 tran: time= 2.4413E+00 tot_iter=      55 conv_iter=      22 cpu clock= 2.53E+00
 tran: time= 3.1963E+00 tot_iter=      59 conv_iter=      24 cpu clock= 2.53E+00
 tran: time= 3.9513E+00 tot_iter=      63 conv_iter=      26 cpu clock= 2.53E+00
 tran: time= 4.7063E+00 tot_iter=      67 conv_iter=      28 cpu clock= 2.53E+00
 tran: time= 5.4613E+00 tot_iter=      71 conv_iter=      30 cpu clock= 2.53E+00
 tran: time= 6.2163E+00 tot_iter=      75 conv_iter=      32 cpu clock= 2.53E+00
 tran: time= 6.9713E+00 tot_iter=      79 conv_iter=      34 cpu clock= 2.53E+00
 tran: time= 7.5500E+00 tot_iter=      83 conv_iter=      36 cpu clock= 2.53E+00
 sweep: tran tran53   end,  cpu clock=  2.53E+00 peak memory=       234 mb
 data: data=table           multiplier      =    6.00E+00
 dcop: begin dcop,  cpu clock=  2.57E+00
 dcop: end dcop,  cpu clock=  2.57E+00 peak memory=       234 mb  tot_iter=     540
 output: DRAM_MOSFET_Sweep.mt0
 sweep: tran tran54   begin, stop_t=  7.55E+00 #sweeps=**** cpu clock=  2.57E+00
 tran: time= 9.8185E-01 tot_iter=      48 conv_iter=      18 cpu clock= 2.57E+00
 tran: time= 1.7368E+00 tot_iter=      52 conv_iter=      20 cpu clock= 2.57E+00
 tran: time= 2.4918E+00 tot_iter=      56 conv_iter=      22 cpu clock= 2.57E+00
 tran: time= 3.2468E+00 tot_iter=      60 conv_iter=      24 cpu clock= 2.57E+00
 tran: time= 4.0018E+00 tot_iter=      64 conv_iter=      26 cpu clock= 2.57E+00
 tran: time= 4.7568E+00 tot_iter=      68 conv_iter=      28 cpu clock= 2.57E+00
 tran: time= 5.5118E+00 tot_iter=      72 conv_iter=      30 cpu clock= 2.57E+00
 tran: time= 6.2668E+00 tot_iter=      76 conv_iter=      32 cpu clock= 2.57E+00
 tran: time= 7.0218E+00 tot_iter=      80 conv_iter=      34 cpu clock= 2.57E+00
 tran: time= 7.5500E+00 tot_iter=      84 conv_iter=      36 cpu clock= 2.57E+00
 sweep: tran tran54   end,  cpu clock=  2.57E+00 peak memory=       234 mb
 data: data=table           multiplier      =    7.00E+00
 dcop: begin dcop,  cpu clock=  2.61E+00
 dcop: end dcop,  cpu clock=  2.61E+00 peak memory=       234 mb  tot_iter=     550
 output: DRAM_MOSFET_Sweep.mt0
 sweep: tran tran55   begin, stop_t=  7.55E+00 #sweeps=**** cpu clock=  2.61E+00
 tran: time= 1.1102E+00 tot_iter=      48 conv_iter=      18 cpu clock= 2.61E+00
 tran: time= 1.8652E+00 tot_iter=      52 conv_iter=      20 cpu clock= 2.61E+00
 tran: time= 2.6202E+00 tot_iter=      56 conv_iter=      22 cpu clock= 2.61E+00
 tran: time= 3.3752E+00 tot_iter=      60 conv_iter=      24 cpu clock= 2.61E+00
 tran: time= 4.1302E+00 tot_iter=      64 conv_iter=      26 cpu clock= 2.61E+00
 tran: time= 4.8852E+00 tot_iter=      68 conv_iter=      28 cpu clock= 2.61E+00
 tran: time= 5.6402E+00 tot_iter=      72 conv_iter=      30 cpu clock= 2.61E+00
 tran: time= 6.3952E+00 tot_iter=      76 conv_iter=      32 cpu clock= 2.61E+00
 tran: time= 7.1502E+00 tot_iter=      80 conv_iter=      34 cpu clock= 2.61E+00
 tran: time= 7.5500E+00 tot_iter=      82 conv_iter=      35 cpu clock= 2.61E+00
 sweep: tran tran55   end,  cpu clock=  2.61E+00 peak memory=       234 mb
 data: data=table           multiplier      =    8.00E+00
 dcop: begin dcop,  cpu clock=  2.65E+00
 dcop: end dcop,  cpu clock=  2.65E+00 peak memory=       234 mb  tot_iter=     560
 output: DRAM_MOSFET_Sweep.mt0
 sweep: tran tran56   begin, stop_t=  7.55E+00 #sweeps=**** cpu clock=  2.65E+00
 tran: time= 8.2283E-01 tot_iter=      48 conv_iter=      17 cpu clock= 2.65E+00
 tran: time= 1.5778E+00 tot_iter=      52 conv_iter=      19 cpu clock= 2.65E+00
 tran: time= 2.3328E+00 tot_iter=      56 conv_iter=      21 cpu clock= 2.65E+00
 tran: time= 3.0878E+00 tot_iter=      60 conv_iter=      23 cpu clock= 2.65E+00
 tran: time= 3.8428E+00 tot_iter=      64 conv_iter=      25 cpu clock= 2.65E+00
 tran: time= 4.5978E+00 tot_iter=      68 conv_iter=      27 cpu clock= 2.65E+00
 tran: time= 5.3528E+00 tot_iter=      72 conv_iter=      29 cpu clock= 2.65E+00
 tran: time= 6.1078E+00 tot_iter=      76 conv_iter=      31 cpu clock= 2.65E+00
 tran: time= 6.8628E+00 tot_iter=      80 conv_iter=      33 cpu clock= 2.65E+00
 tran: time= 7.5500E+00 tot_iter=      84 conv_iter=      35 cpu clock= 2.65E+00
 sweep: tran tran56   end,  cpu clock=  2.65E+00 peak memory=       234 mb
 data: data=table           multiplier      =    9.00E+00
 dcop: begin dcop,  cpu clock=  2.69E+00
 dcop: end dcop,  cpu clock=  2.69E+00 peak memory=       234 mb  tot_iter=     570
 output: DRAM_MOSFET_Sweep.mt0
 sweep: tran tran57   begin, stop_t=  7.55E+00 #sweeps=**** cpu clock=  2.69E+00
 tran: time= 1.0469E+00 tot_iter=      50 conv_iter=      18 cpu clock= 2.69E+00
 tran: time= 1.8019E+00 tot_iter=      54 conv_iter=      20 cpu clock= 2.69E+00
 tran: time= 2.5569E+00 tot_iter=      58 conv_iter=      22 cpu clock= 2.69E+00
 tran: time= 3.3119E+00 tot_iter=      62 conv_iter=      24 cpu clock= 2.69E+00
 tran: time= 4.0669E+00 tot_iter=      66 conv_iter=      26 cpu clock= 2.69E+00
 tran: time= 4.8219E+00 tot_iter=      70 conv_iter=      28 cpu clock= 2.69E+00
 tran: time= 5.5769E+00 tot_iter=      74 conv_iter=      30 cpu clock= 2.69E+00
 tran: time= 6.3319E+00 tot_iter=      78 conv_iter=      32 cpu clock= 2.69E+00
 tran: time= 7.0869E+00 tot_iter=      82 conv_iter=      34 cpu clock= 2.69E+00
 tran: time= 7.5500E+00 tot_iter=      86 conv_iter=      36 cpu clock= 2.69E+00
 sweep: tran tran57   end,  cpu clock=  2.69E+00 peak memory=       234 mb
 data: data=table           multiplier      =    1.00E+01
 dcop: begin dcop,  cpu clock=  2.73E+00
 dcop: end dcop,  cpu clock=  2.73E+00 peak memory=       234 mb  tot_iter=     580
 output: DRAM_MOSFET_Sweep.mt0
 sweep: tran tran58   begin, stop_t=  7.55E+00 #sweeps=**** cpu clock=  2.73E+00
 tran: time= 8.6030E-01 tot_iter=      49 conv_iter=      18 cpu clock= 2.73E+00
 tran: time= 1.6153E+00 tot_iter=      53 conv_iter=      20 cpu clock= 2.73E+00
 tran: time= 2.3703E+00 tot_iter=      57 conv_iter=      22 cpu clock= 2.73E+00
 tran: time= 3.1253E+00 tot_iter=      61 conv_iter=      24 cpu clock= 2.73E+00
 tran: time= 3.8803E+00 tot_iter=      65 conv_iter=      26 cpu clock= 2.73E+00
 tran: time= 4.6353E+00 tot_iter=      69 conv_iter=      28 cpu clock= 2.73E+00
 tran: time= 5.3903E+00 tot_iter=      73 conv_iter=      30 cpu clock= 2.73E+00
 tran: time= 6.1453E+00 tot_iter=      77 conv_iter=      32 cpu clock= 2.73E+00
 tran: time= 6.9003E+00 tot_iter=      81 conv_iter=      34 cpu clock= 2.73E+00
 tran: time= 7.5500E+00 tot_iter=      85 conv_iter=      36 cpu clock= 2.73E+00
 sweep: tran tran58   end,  cpu clock=  2.73E+00 peak memory=       234 mb
 data: data=table           multiplier      =    1.10E+01
 dcop: begin dcop,  cpu clock=  2.77E+00
 dcop: end dcop,  cpu clock=  2.77E+00 peak memory=       234 mb  tot_iter=     590
 output: DRAM_MOSFET_Sweep.mt0
 sweep: tran tran59   begin, stop_t=  7.55E+00 #sweeps=**** cpu clock=  2.77E+00
 tran: time= 1.0790E+00 tot_iter=      52 conv_iter=      19 cpu clock= 2.77E+00
 tran: time= 1.8340E+00 tot_iter=      56 conv_iter=      21 cpu clock= 2.77E+00
 tran: time= 2.5890E+00 tot_iter=      60 conv_iter=      23 cpu clock= 2.77E+00
 tran: time= 3.3440E+00 tot_iter=      64 conv_iter=      25 cpu clock= 2.77E+00
 tran: time= 4.0990E+00 tot_iter=      68 conv_iter=      27 cpu clock= 2.77E+00
 tran: time= 4.8540E+00 tot_iter=      72 conv_iter=      29 cpu clock= 2.77E+00
 tran: time= 5.6090E+00 tot_iter=      76 conv_iter=      31 cpu clock= 2.77E+00
 tran: time= 6.3640E+00 tot_iter=      80 conv_iter=      33 cpu clock= 2.77E+00
 tran: time= 7.1190E+00 tot_iter=      84 conv_iter=      35 cpu clock= 2.77E+00
 tran: time= 7.5500E+00 tot_iter=      88 conv_iter=      37 cpu clock= 2.77E+00
 sweep: tran tran59   end,  cpu clock=  2.77E+00 peak memory=       234 mb
 data: data=table           multiplier      =    1.20E+01
 dcop: begin dcop,  cpu clock=  2.81E+00
 dcop: end dcop,  cpu clock=  2.81E+00 peak memory=       234 mb  tot_iter=     600
 output: DRAM_MOSFET_Sweep.mt0
 sweep: tran tran60   begin, stop_t=  7.55E+00 #sweeps=**** cpu clock=  2.81E+00
 tran: time= 1.0575E+00 tot_iter=      53 conv_iter=      19 cpu clock= 2.81E+00
 tran: time= 1.8125E+00 tot_iter=      57 conv_iter=      21 cpu clock= 2.81E+00
 tran: time= 2.5675E+00 tot_iter=      61 conv_iter=      23 cpu clock= 2.81E+00
 tran: time= 3.3225E+00 tot_iter=      65 conv_iter=      25 cpu clock= 2.81E+00
 tran: time= 4.0775E+00 tot_iter=      69 conv_iter=      27 cpu clock= 2.81E+00
 tran: time= 4.8325E+00 tot_iter=      73 conv_iter=      29 cpu clock= 2.81E+00
 tran: time= 5.5875E+00 tot_iter=      77 conv_iter=      31 cpu clock= 2.81E+00
 tran: time= 6.3425E+00 tot_iter=      81 conv_iter=      33 cpu clock= 2.81E+00
 tran: time= 7.0975E+00 tot_iter=      85 conv_iter=      35 cpu clock= 2.81E+00
 tran: time= 7.5500E+00 tot_iter=      89 conv_iter=      37 cpu clock= 2.81E+00
 sweep: tran tran60   end,  cpu clock=  2.81E+00 peak memory=       234 mb
 data: data=table           multiplier      =    1.30E+01
 dcop: begin dcop,  cpu clock=  2.85E+00
 dcop: end dcop,  cpu clock=  2.85E+00 peak memory=       234 mb  tot_iter=     610
 output: DRAM_MOSFET_Sweep.mt0
 sweep: tran tran61   begin, stop_t=  7.55E+00 #sweeps=**** cpu clock=  2.85E+00
 tran: time= 9.1287E-01 tot_iter=      54 conv_iter=      19 cpu clock= 2.85E+00
 tran: time= 1.6679E+00 tot_iter=      58 conv_iter=      21 cpu clock= 2.85E+00
 tran: time= 2.4229E+00 tot_iter=      62 conv_iter=      23 cpu clock= 2.85E+00
 tran: time= 3.1779E+00 tot_iter=      66 conv_iter=      25 cpu clock= 2.85E+00
 tran: time= 3.9329E+00 tot_iter=      70 conv_iter=      27 cpu clock= 2.85E+00
 tran: time= 4.6879E+00 tot_iter=      74 conv_iter=      29 cpu clock= 2.85E+00
 tran: time= 5.4429E+00 tot_iter=      78 conv_iter=      31 cpu clock= 2.85E+00
 tran: time= 6.1979E+00 tot_iter=      82 conv_iter=      33 cpu clock= 2.85E+00
 tran: time= 6.9529E+00 tot_iter=      86 conv_iter=      35 cpu clock= 2.85E+00
 tran: time= 7.5500E+00 tot_iter=      90 conv_iter=      37 cpu clock= 2.85E+00
 sweep: tran tran61   end,  cpu clock=  2.85E+00 peak memory=       234 mb
 data: data=table           multiplier      =    1.40E+01
 dcop: begin dcop,  cpu clock=  2.89E+00
 dcop: end dcop,  cpu clock=  2.89E+00 peak memory=       234 mb  tot_iter=     620
 output: DRAM_MOSFET_Sweep.mt0
 sweep: tran tran62   begin, stop_t=  7.55E+00 #sweeps=**** cpu clock=  2.89E+00
 tran: time= 1.1082E+00 tot_iter=      56 conv_iter=      20 cpu clock= 2.90E+00
 tran: time= 1.8632E+00 tot_iter=      60 conv_iter=      22 cpu clock= 2.90E+00
 tran: time= 2.6182E+00 tot_iter=      64 conv_iter=      24 cpu clock= 2.90E+00
 tran: time= 3.3732E+00 tot_iter=      68 conv_iter=      26 cpu clock= 2.90E+00
 tran: time= 4.1282E+00 tot_iter=      72 conv_iter=      28 cpu clock= 2.90E+00
 tran: time= 4.8832E+00 tot_iter=      76 conv_iter=      30 cpu clock= 2.90E+00
 tran: time= 5.6382E+00 tot_iter=      80 conv_iter=      32 cpu clock= 2.90E+00
 tran: time= 6.3932E+00 tot_iter=      84 conv_iter=      34 cpu clock= 2.90E+00
 tran: time= 7.1482E+00 tot_iter=      88 conv_iter=      36 cpu clock= 2.90E+00
 tran: time= 7.5500E+00 tot_iter=      90 conv_iter=      37 cpu clock= 2.90E+00
 sweep: tran tran62   end,  cpu clock=  2.90E+00 peak memory=       234 mb
 data: data=table           multiplier      =    1.50E+01
 dcop: begin dcop,  cpu clock=  2.93E+00
 dcop: end dcop,  cpu clock=  2.93E+00 peak memory=       234 mb  tot_iter=     630
 output: DRAM_MOSFET_Sweep.mt0
 sweep: tran tran63   begin, stop_t=  7.55E+00 #sweeps=**** cpu clock=  2.93E+00
 tran: time= 1.0844E+00 tot_iter=      58 conv_iter=      20 cpu clock= 2.93E+00
 tran: time= 1.8394E+00 tot_iter=      62 conv_iter=      22 cpu clock= 2.93E+00
 tran: time= 2.5944E+00 tot_iter=      66 conv_iter=      24 cpu clock= 2.93E+00
 tran: time= 3.3494E+00 tot_iter=      70 conv_iter=      26 cpu clock= 2.93E+00
 tran: time= 4.1044E+00 tot_iter=      74 conv_iter=      28 cpu clock= 2.93E+00
 tran: time= 4.8594E+00 tot_iter=      78 conv_iter=      30 cpu clock= 2.93E+00
 tran: time= 5.6144E+00 tot_iter=      82 conv_iter=      32 cpu clock= 2.93E+00
 tran: time= 6.3694E+00 tot_iter=      86 conv_iter=      34 cpu clock= 2.93E+00
 tran: time= 7.1244E+00 tot_iter=      90 conv_iter=      36 cpu clock= 2.93E+00
 tran: time= 7.5500E+00 tot_iter=      94 conv_iter=      38 cpu clock= 2.93E+00
 sweep: tran tran63   end,  cpu clock=  2.93E+00 peak memory=       234 mb
 data: data=table           multiplier      =    1.60E+01
 dcop: begin dcop,  cpu clock=  2.97E+00
 dcop: end dcop,  cpu clock=  2.97E+00 peak memory=       234 mb  tot_iter=     640
 output: DRAM_MOSFET_Sweep.mt0
 sweep: tran tran64   begin, stop_t=  7.55E+00 #sweeps=**** cpu clock=  2.97E+00
 tran: time= 9.9136E-01 tot_iter=      58 conv_iter=      20 cpu clock= 2.97E+00
 tran: time= 1.7464E+00 tot_iter=      62 conv_iter=      22 cpu clock= 2.97E+00
 tran: time= 2.5014E+00 tot_iter=      66 conv_iter=      24 cpu clock= 2.97E+00
 tran: time= 3.2564E+00 tot_iter=      70 conv_iter=      26 cpu clock= 2.97E+00
 tran: time= 4.0114E+00 tot_iter=      74 conv_iter=      28 cpu clock= 2.97E+00
 tran: time= 4.7664E+00 tot_iter=      78 conv_iter=      30 cpu clock= 2.97E+00
 tran: time= 5.5214E+00 tot_iter=      82 conv_iter=      32 cpu clock= 2.97E+00
 tran: time= 6.2764E+00 tot_iter=      86 conv_iter=      34 cpu clock= 2.97E+00
 tran: time= 7.0314E+00 tot_iter=      90 conv_iter=      36 cpu clock= 2.97E+00
 tran: time= 7.5500E+00 tot_iter=      94 conv_iter=      38 cpu clock= 2.97E+00
 sweep: tran tran64   end,  cpu clock=  2.97E+00 peak memory=       234 mb
 data: data=table           multiplier      =    1.00E+00
 dcop: begin dcop,  cpu clock=  3.00E+00
 dcop: end dcop,  cpu clock=  3.01E+00 peak memory=       234 mb  tot_iter=     650
 output: DRAM_MOSFET_Sweep.mt0
 sweep: tran tran65   begin, stop_t=  7.55E+00 #sweeps=**** cpu clock=  3.01E+00
 tran: time= 8.5643E-01 tot_iter=      43 conv_iter=      18 cpu clock= 3.01E+00
 tran: time= 1.6114E+00 tot_iter=      47 conv_iter=      20 cpu clock= 3.01E+00
 tran: time= 2.3664E+00 tot_iter=      51 conv_iter=      22 cpu clock= 3.01E+00
 tran: time= 3.1214E+00 tot_iter=      55 conv_iter=      24 cpu clock= 3.01E+00
 tran: time= 3.8764E+00 tot_iter=      59 conv_iter=      26 cpu clock= 3.01E+00
 tran: time= 4.6314E+00 tot_iter=      63 conv_iter=      28 cpu clock= 3.01E+00
 tran: time= 5.3864E+00 tot_iter=      67 conv_iter=      30 cpu clock= 3.01E+00
 tran: time= 6.1414E+00 tot_iter=      71 conv_iter=      32 cpu clock= 3.01E+00
 tran: time= 6.8964E+00 tot_iter=      76 conv_iter=      34 cpu clock= 3.01E+00
 tran: time= 7.5500E+00 tot_iter=      80 conv_iter=      36 cpu clock= 3.01E+00
 sweep: tran tran65   end,  cpu clock=  3.01E+00 peak memory=       234 mb
 data: data=table           multiplier      =    2.00E+00
 dcop: begin dcop,  cpu clock=  3.04E+00
 dcop: end dcop,  cpu clock=  3.04E+00 peak memory=       234 mb  tot_iter=     660
 output: DRAM_MOSFET_Sweep.mt0
 sweep: tran tran66   begin, stop_t=  7.55E+00 #sweeps=**** cpu clock=  3.04E+00
 tran: time= 8.0287E-01 tot_iter=      44 conv_iter=      18 cpu clock= 3.04E+00
 tran: time= 1.5579E+00 tot_iter=      48 conv_iter=      20 cpu clock= 3.04E+00
 tran: time= 2.3129E+00 tot_iter=      52 conv_iter=      22 cpu clock= 3.04E+00
 tran: time= 3.0679E+00 tot_iter=      56 conv_iter=      24 cpu clock= 3.04E+00
 tran: time= 3.8229E+00 tot_iter=      60 conv_iter=      26 cpu clock= 3.04E+00
 tran: time= 4.5779E+00 tot_iter=      64 conv_iter=      28 cpu clock= 3.04E+00
 tran: time= 5.3329E+00 tot_iter=      68 conv_iter=      30 cpu clock= 3.04E+00
 tran: time= 6.0879E+00 tot_iter=      72 conv_iter=      32 cpu clock= 3.04E+00
 tran: time= 6.8429E+00 tot_iter=      76 conv_iter=      34 cpu clock= 3.04E+00
 tran: time= 7.5500E+00 tot_iter=      80 conv_iter=      36 cpu clock= 3.04E+00
 sweep: tran tran66   end,  cpu clock=  3.04E+00 peak memory=       234 mb
 data: data=table           multiplier      =    3.00E+00
 dcop: begin dcop,  cpu clock=  3.08E+00
 dcop: end dcop,  cpu clock=  3.08E+00 peak memory=       234 mb  tot_iter=     670
 output: DRAM_MOSFET_Sweep.mt0
 sweep: tran tran67   begin, stop_t=  7.55E+00 #sweeps=**** cpu clock=  3.08E+00
 tran: time= 1.0045E+00 tot_iter=      48 conv_iter=      19 cpu clock= 3.08E+00
 tran: time= 1.7595E+00 tot_iter=      52 conv_iter=      21 cpu clock= 3.08E+00
 tran: time= 2.5145E+00 tot_iter=      56 conv_iter=      23 cpu clock= 3.08E+00
 tran: time= 3.2695E+00 tot_iter=      60 conv_iter=      25 cpu clock= 3.08E+00
 tran: time= 4.0245E+00 tot_iter=      64 conv_iter=      27 cpu clock= 3.08E+00
 tran: time= 4.7795E+00 tot_iter=      68 conv_iter=      29 cpu clock= 3.08E+00
[...]
 output: DRAM_MOSFET_Sweep.mt0
 sweep: tran tran160  begin, stop_t=  7.55E+00 #sweeps=**** cpu clock=  6.68E+00
 tran: time= 9.5120E-01 tot_iter=      37 conv_iter=      17 cpu clock= 6.68E+00
 tran: time= 1.5843E+00 tot_iter=      41 conv_iter=      19 cpu clock= 6.68E+00
 tran: time= 2.3393E+00 tot_iter=      45 conv_iter=      21 cpu clock= 6.68E+00
 tran: time= 3.0943E+00 tot_iter=      49 conv_iter=      23 cpu clock= 6.68E+00
 tran: time= 3.8493E+00 tot_iter=      53 conv_iter=      25 cpu clock= 6.68E+00
 tran: time= 4.6043E+00 tot_iter=      57 conv_iter=      27 cpu clock= 6.68E+00
 tran: time= 5.3593E+00 tot_iter=      61 conv_iter=      29 cpu clock= 6.68E+00
 tran: time= 6.1143E+00 tot_iter=      65 conv_iter=      31 cpu clock= 6.68E+00
 tran: time= 6.8693E+00 tot_iter=      70 conv_iter=      33 cpu clock= 6.68E+00
 tran: time= 7.5500E+00 tot_iter=      74 conv_iter=      35 cpu clock= 6.68E+00
 sweep: tran tran160  end,  cpu clock=  6.68E+00 peak memory=       234 mb
 data: data=table           multiplier      =    1.00E+00
 dcop: begin dcop,  cpu clock=  6.72E+00
 dcop: end dcop,  cpu clock=  6.72E+00 peak memory=       234 mb  tot_iter=    1610
 output: DRAM_MOSFET_Sweep.mt0
 sweep: tran tran161  begin, stop_t=  7.55E+00 #sweeps=**** cpu clock=  6.72E+00
 tran: time= 9.8252E-01 tot_iter=      20 conv_iter=      10 cpu clock= 6.72E+00
 tran: time= 1.7375E+00 tot_iter=      24 conv_iter=      12 cpu clock= 6.72E+00
 tran: time= 2.4925E+00 tot_iter=      28 conv_iter=      14 cpu clock= 6.72E+00
 tran: time= 3.2475E+00 tot_iter=      32 conv_iter=      16 cpu clock= 6.72E+00
 tran: time= 4.0025E+00 tot_iter=      36 conv_iter=      18 cpu clock= 6.72E+00
 tran: time= 4.7575E+00 tot_iter=      40 conv_iter=      20 cpu clock= 6.72E+00
 tran: time= 5.5125E+00 tot_iter=      44 conv_iter=      22 cpu clock= 6.72E+00
 tran: time= 6.2675E+00 tot_iter=      48 conv_iter=      24 cpu clock= 6.72E+00
 tran: time= 7.0225E+00 tot_iter=      52 conv_iter=      26 cpu clock= 6.72E+00
 tran: time= 7.5500E+00 tot_iter=      56 conv_iter=      28 cpu clock= 6.72E+00
 sweep: tran tran161  end,  cpu clock=  6.72E+00 peak memory=       234 mb
 data: data=table           multiplier      =    2.00E+00
 dcop: begin dcop,  cpu clock=  6.76E+00
 dcop: end dcop,  cpu clock=  6.76E+00 peak memory=       234 mb  tot_iter=    1620
 output: DRAM_MOSFET_Sweep.mt0
 sweep: tran tran162  begin, stop_t=  7.55E+00 #sweeps=**** cpu clock=  6.76E+00
 tran: time= 7.7420E-01 tot_iter=      20 conv_iter=      10 cpu clock= 6.76E+00
 tran: time= 1.7221E+00 tot_iter=      26 conv_iter=      13 cpu clock= 6.76E+00
 tran: time= 2.4771E+00 tot_iter=      30 conv_iter=      15 cpu clock= 6.76E+00
 tran: time= 3.2321E+00 tot_iter=      34 conv_iter=      17 cpu clock= 6.76E+00
 tran: time= 3.9871E+00 tot_iter=      38 conv_iter=      19 cpu clock= 6.76E+00
 tran: time= 4.7421E+00 tot_iter=      42 conv_iter=      21 cpu clock= 6.76E+00
 tran: time= 5.4971E+00 tot_iter=      46 conv_iter=      23 cpu clock= 6.76E+00
 tran: time= 6.2521E+00 tot_iter=      50 conv_iter=      25 cpu clock= 6.76E+00
 tran: time= 7.0071E+00 tot_iter=      54 conv_iter=      27 cpu clock= 6.76E+00
 tran: time= 7.5500E+00 tot_iter=      58 conv_iter=      29 cpu clock= 6.76E+00
 sweep: tran tran162  end,  cpu clock=  6.76E+00 peak memory=       234 mb
 data: data=table           multiplier      =    3.00E+00
 dcop: begin dcop,  cpu clock=  6.80E+00
 dcop: end dcop,  cpu clock=  6.80E+00 peak memory=       234 mb  tot_iter=    1630
 output: DRAM_MOSFET_Sweep.mt0
 sweep: tran tran163  begin, stop_t=  7.55E+00 #sweeps=**** cpu clock=  6.80E+00
 tran: time= 8.3351E-01 tot_iter=      22 conv_iter=      11 cpu clock= 6.80E+00
 tran: time= 1.7435E+00 tot_iter=      28 conv_iter=      14 cpu clock= 6.80E+00
 tran: time= 2.4985E+00 tot_iter=      32 conv_iter=      16 cpu clock= 6.80E+00
 tran: time= 3.2535E+00 tot_iter=      36 conv_iter=      18 cpu clock= 6.80E+00
 tran: time= 4.0085E+00 tot_iter=      40 conv_iter=      20 cpu clock= 6.80E+00
 tran: time= 4.7635E+00 tot_iter=      44 conv_iter=      22 cpu clock= 6.80E+00
 tran: time= 5.5185E+00 tot_iter=      48 conv_iter=      24 cpu clock= 6.80E+00
 tran: time= 6.2735E+00 tot_iter=      52 conv_iter=      26 cpu clock= 6.80E+00
 tran: time= 7.0285E+00 tot_iter=      56 conv_iter=      28 cpu clock= 6.80E+00
 tran: time= 7.5500E+00 tot_iter=      60 conv_iter=      30 cpu clock= 6.80E+00
 sweep: tran tran163  end,  cpu clock=  6.80E+00 peak memory=       234 mb
 data: data=table           multiplier      =    4.00E+00
 dcop: begin dcop,  cpu clock=  6.83E+00
 dcop: end dcop,  cpu clock=  6.83E+00 peak memory=       234 mb  tot_iter=    1640
 output: DRAM_MOSFET_Sweep.mt0
 sweep: tran tran164  begin, stop_t=  7.55E+00 #sweeps=**** cpu clock=  6.83E+00
 tran: time= 9.3163E-01 tot_iter=      24 conv_iter=      12 cpu clock= 6.83E+00
 tran: time= 1.8828E+00 tot_iter=      30 conv_iter=      15 cpu clock= 6.83E+00
 tran: time= 2.6378E+00 tot_iter=      34 conv_iter=      17 cpu clock= 6.83E+00
 tran: time= 3.3928E+00 tot_iter=      38 conv_iter=      19 cpu clock= 6.83E+00
 tran: time= 4.1478E+00 tot_iter=      42 conv_iter=      21 cpu clock= 6.83E+00
 tran: time= 4.9028E+00 tot_iter=      46 conv_iter=      23 cpu clock= 6.83E+00
 tran: time= 5.6578E+00 tot_iter=      50 conv_iter=      25 cpu clock= 6.83E+00
 tran: time= 6.4128E+00 tot_iter=      54 conv_iter=      27 cpu clock= 6.83E+00
 tran: time= 7.1678E+00 tot_iter=      58 conv_iter=      29 cpu clock= 6.83E+00
 tran: time= 7.5500E+00 tot_iter=      60 conv_iter=      30 cpu clock= 6.83E+00
 sweep: tran tran164  end,  cpu clock=  6.83E+00 peak memory=       234 mb
 data: data=table           multiplier      =    5.00E+00
 dcop: begin dcop,  cpu clock=  6.87E+00
 dcop: end dcop,  cpu clock=  6.87E+00 peak memory=       234 mb  tot_iter=    1650
 output: DRAM_MOSFET_Sweep.mt0
 sweep: tran tran165  begin, stop_t=  7.55E+00 #sweeps=**** cpu clock=  6.87E+00
 tran: time= 8.4313E-01 tot_iter=      24 conv_iter=      12 cpu clock= 6.87E+00
 tran: time= 1.7211E+00 tot_iter=      30 conv_iter=      15 cpu clock= 6.87E+00
 tran: time= 2.4761E+00 tot_iter=      34 conv_iter=      17 cpu clock= 6.87E+00
 tran: time= 3.2311E+00 tot_iter=      38 conv_iter=      19 cpu clock= 6.87E+00
 tran: time= 3.9861E+00 tot_iter=      42 conv_iter=      21 cpu clock= 6.87E+00
 tran: time= 4.7411E+00 tot_iter=      46 conv_iter=      23 cpu clock= 6.87E+00
 tran: time= 5.4961E+00 tot_iter=      50 conv_iter=      25 cpu clock= 6.87E+00
 tran: time= 6.2511E+00 tot_iter=      54 conv_iter=      27 cpu clock= 6.87E+00
 tran: time= 7.0061E+00 tot_iter=      58 conv_iter=      29 cpu clock= 6.87E+00
 tran: time= 7.5500E+00 tot_iter=      62 conv_iter=      31 cpu clock= 6.87E+00
 sweep: tran tran165  end,  cpu clock=  6.87E+00 peak memory=       234 mb
 data: data=table           multiplier      =    6.00E+00
 dcop: begin dcop,  cpu clock=  6.91E+00
 dcop: end dcop,  cpu clock=  6.91E+00 peak memory=       234 mb  tot_iter=    1660
 output: DRAM_MOSFET_Sweep.mt0
 sweep: tran tran166  begin, stop_t=  7.55E+00 #sweeps=**** cpu clock=  6.91E+00
 tran: time= 7.6360E-01 tot_iter=      24 conv_iter=      12 cpu clock= 6.91E+00
 tran: time= 1.5746E+00 tot_iter=      30 conv_iter=      15 cpu clock= 6.91E+00
 tran: time= 2.3244E+00 tot_iter=      34 conv_iter=      17 cpu clock= 6.91E+00
 tran: time= 3.0794E+00 tot_iter=      38 conv_iter=      19 cpu clock= 6.91E+00
 tran: time= 3.8344E+00 tot_iter=      42 conv_iter=      21 cpu clock= 6.91E+00
 tran: time= 4.5894E+00 tot_iter=      46 conv_iter=      23 cpu clock= 6.91E+00
 tran: time= 5.3444E+00 tot_iter=      50 conv_iter=      25 cpu clock= 6.91E+00
 tran: time= 6.0994E+00 tot_iter=      54 conv_iter=      27 cpu clock= 6.91E+00
 tran: time= 6.8544E+00 tot_iter=      58 conv_iter=      29 cpu clock= 6.91E+00
 tran: time= 7.5500E+00 tot_iter=      62 conv_iter=      31 cpu clock= 6.91E+00
 sweep: tran tran166  end,  cpu clock=  6.91E+00 peak memory=       234 mb
 data: data=table           multiplier      =    7.00E+00
 dcop: begin dcop,  cpu clock=  6.96E+00
 dcop: end dcop,  cpu clock=  6.96E+00 peak memory=       234 mb  tot_iter=    1670
 output: DRAM_MOSFET_Sweep.mt0
 sweep: tran tran167  begin, stop_t=  7.55E+00 #sweeps=**** cpu clock=  6.96E+00
 tran: time= 9.1151E-01 tot_iter=      27 conv_iter=      13 cpu clock= 6.96E+00
 tran: time= 1.8184E+00 tot_iter=      33 conv_iter=      16 cpu clock= 6.96E+00
 tran: time= 2.5734E+00 tot_iter=      37 conv_iter=      18 cpu clock= 6.96E+00
 tran: time= 3.3284E+00 tot_iter=      41 conv_iter=      20 cpu clock= 6.96E+00
 tran: time= 4.0834E+00 tot_iter=      45 conv_iter=      22 cpu clock= 6.96E+00
 tran: time= 4.8384E+00 tot_iter=      49 conv_iter=      24 cpu clock= 6.96E+00
 tran: time= 5.5934E+00 tot_iter=      53 conv_iter=      26 cpu clock= 6.96E+00
 tran: time= 6.3484E+00 tot_iter=      57 conv_iter=      28 cpu clock= 6.96E+00
 tran: time= 7.1034E+00 tot_iter=      61 conv_iter=      30 cpu clock= 6.96E+00
 tran: time= 7.5500E+00 tot_iter=      65 conv_iter=      32 cpu clock= 6.96E+00
 sweep: tran tran167  end,  cpu clock=  6.96E+00 peak memory=       234 mb
 data: data=table           multiplier      =    8.00E+00
 dcop: begin dcop,  cpu clock=  7.01E+00
 dcop: end dcop,  cpu clock=  7.01E+00 peak memory=       234 mb  tot_iter=    1680
 output: DRAM_MOSFET_Sweep.mt0
 sweep: tran tran168  begin, stop_t=  7.55E+00 #sweeps=**** cpu clock=  7.01E+00
 tran: time= 8.3084E-01 tot_iter=      27 conv_iter=      13 cpu clock= 7.01E+00
 tran: time= 1.6744E+00 tot_iter=      33 conv_iter=      16 cpu clock= 7.01E+00
 tran: time= 2.4294E+00 tot_iter=      37 conv_iter=      18 cpu clock= 7.01E+00
 tran: time= 3.1844E+00 tot_iter=      41 conv_iter=      20 cpu clock= 7.01E+00
 tran: time= 3.9394E+00 tot_iter=      45 conv_iter=      22 cpu clock= 7.01E+00
 tran: time= 4.6944E+00 tot_iter=      49 conv_iter=      24 cpu clock= 7.01E+00
 tran: time= 5.4494E+00 tot_iter=      53 conv_iter=      26 cpu clock= 7.01E+00
 tran: time= 6.2044E+00 tot_iter=      57 conv_iter=      28 cpu clock= 7.01E+00
 tran: time= 6.9594E+00 tot_iter=      61 conv_iter=      30 cpu clock= 7.01E+00
 tran: time= 7.5500E+00 tot_iter=      65 conv_iter=      32 cpu clock= 7.01E+00
 sweep: tran tran168  end,  cpu clock=  7.01E+00 peak memory=       234 mb
 data: data=table           multiplier      =    9.00E+00
 dcop: begin dcop,  cpu clock=  7.05E+00
 dcop: end dcop,  cpu clock=  7.05E+00 peak memory=       234 mb  tot_iter=    1690
 output: DRAM_MOSFET_Sweep.mt0
 sweep: tran tran169  begin, stop_t=  7.55E+00 #sweeps=**** cpu clock=  7.05E+00
 tran: time= 7.7341E-01 tot_iter=      27 conv_iter=      13 cpu clock= 7.05E+00
 tran: time= 1.5764E+00 tot_iter=      33 conv_iter=      16 cpu clock= 7.05E+00
 tran: time= 2.3314E+00 tot_iter=      37 conv_iter=      18 cpu clock= 7.05E+00
 tran: time= 3.0864E+00 tot_iter=      41 conv_iter=      20 cpu clock= 7.05E+00
 tran: time= 3.8414E+00 tot_iter=      45 conv_iter=      22 cpu clock= 7.05E+00
 tran: time= 4.5964E+00 tot_iter=      49 conv_iter=      24 cpu clock= 7.05E+00
 tran: time= 5.3514E+00 tot_iter=      53 conv_iter=      26 cpu clock= 7.05E+00
 tran: time= 6.1064E+00 tot_iter=      57 conv_iter=      28 cpu clock= 7.05E+00
 tran: time= 6.8614E+00 tot_iter=      61 conv_iter=      30 cpu clock= 7.05E+00
 tran: time= 7.5500E+00 tot_iter=      65 conv_iter=      32 cpu clock= 7.05E+00
 sweep: tran tran169  end,  cpu clock=  7.05E+00 peak memory=       234 mb
 data: data=table           multiplier      =    1.00E+01
 dcop: begin dcop,  cpu clock=  7.09E+00
 dcop: end dcop,  cpu clock=  7.09E+00 peak memory=       234 mb  tot_iter=    1700
 output: DRAM_MOSFET_Sweep.mt0
 sweep: tran tran170  begin, stop_t=  7.55E+00 #sweeps=**** cpu clock=  7.09E+00
 tran: time= 9.3306E-01 tot_iter=      29 conv_iter=      14 cpu clock= 7.09E+00
 tran: time= 1.8749E+00 tot_iter=      35 conv_iter=      17 cpu clock= 7.09E+00
 tran: time= 2.6299E+00 tot_iter=      39 conv_iter=      19 cpu clock= 7.09E+00
 tran: time= 3.3849E+00 tot_iter=      43 conv_iter=      21 cpu clock= 7.09E+00
 tran: time= 4.1399E+00 tot_iter=      47 conv_iter=      23 cpu clock= 7.09E+00
 tran: time= 4.8949E+00 tot_iter=      51 conv_iter=      25 cpu clock= 7.09E+00
 tran: time= 5.6499E+00 tot_iter=      55 conv_iter=      27 cpu clock= 7.09E+00
 tran: time= 6.4049E+00 tot_iter=      59 conv_iter=      29 cpu clock= 7.09E+00
 tran: time= 7.1599E+00 tot_iter=      63 conv_iter=      31 cpu clock= 7.09E+00
 tran: time= 7.5500E+00 tot_iter=      65 conv_iter=      32 cpu clock= 7.09E+00
 sweep: tran tran170  end,  cpu clock=  7.09E+00 peak memory=       234 mb
 data: data=table           multiplier      =    1.10E+01
 dcop: begin dcop,  cpu clock=  7.12E+00
 dcop: end dcop,  cpu clock=  7.12E+00 peak memory=       234 mb  tot_iter=    1710
 output: DRAM_MOSFET_Sweep.mt0
 sweep: tran tran171  begin, stop_t=  7.55E+00 #sweeps=**** cpu clock=  7.12E+00
 tran: time= 8.8260E-01 tot_iter=      29 conv_iter=      14 cpu clock= 7.12E+00
 tran: time= 1.7982E+00 tot_iter=      35 conv_iter=      17 cpu clock= 7.12E+00
 tran: time= 2.5532E+00 tot_iter=      39 conv_iter=      19 cpu clock= 7.12E+00
 tran: time= 3.3082E+00 tot_iter=      43 conv_iter=      21 cpu clock= 7.12E+00
 tran: time= 4.0632E+00 tot_iter=      47 conv_iter=      23 cpu clock= 7.12E+00
 tran: time= 4.8182E+00 tot_iter=      51 conv_iter=      25 cpu clock= 7.12E+00
 tran: time= 5.5732E+00 tot_iter=      55 conv_iter=      27 cpu clock= 7.12E+00
 tran: time= 6.3282E+00 tot_iter=      59 conv_iter=      29 cpu clock= 7.12E+00
 tran: time= 7.0832E+00 tot_iter=      63 conv_iter=      31 cpu clock= 7.12E+00
 tran: time= 7.5500E+00 tot_iter=      67 conv_iter=      33 cpu clock= 7.12E+00
 sweep: tran tran171  end,  cpu clock=  7.12E+00 peak memory=       234 mb
 data: data=table           multiplier      =    1.20E+01
 dcop: begin dcop,  cpu clock=  7.15E+00
 dcop: end dcop,  cpu clock=  7.15E+00 peak memory=       234 mb  tot_iter=    1720
 output: DRAM_MOSFET_Sweep.mt0
 sweep: tran tran172  begin, stop_t=  7.55E+00 #sweeps=**** cpu clock=  7.15E+00
 tran: time= 8.4105E-01 tot_iter=      29 conv_iter=      14 cpu clock= 7.16E+00
 tran: time= 1.7268E+00 tot_iter=      35 conv_iter=      17 cpu clock= 7.16E+00
 tran: time= 2.4818E+00 tot_iter=      39 conv_iter=      19 cpu clock= 7.16E+00
 tran: time= 3.2368E+00 tot_iter=      43 conv_iter=      21 cpu clock= 7.16E+00
 tran: time= 3.9918E+00 tot_iter=      47 conv_iter=      23 cpu clock= 7.16E+00
 tran: time= 4.7468E+00 tot_iter=      51 conv_iter=      25 cpu clock= 7.16E+00
 tran: time= 5.5018E+00 tot_iter=      55 conv_iter=      27 cpu clock= 7.16E+00
 tran: time= 6.2568E+00 tot_iter=      59 conv_iter=      29 cpu clock= 7.16E+00
 tran: time= 7.0118E+00 tot_iter=      63 conv_iter=      31 cpu clock= 7.16E+00
 tran: time= 7.5500E+00 tot_iter=      67 conv_iter=      33 cpu clock= 7.16E+00
 sweep: tran tran172  end,  cpu clock=  7.16E+00 peak memory=       234 mb
 data: data=table           multiplier      =    1.30E+01
 dcop: begin dcop,  cpu clock=  7.19E+00
 dcop: end dcop,  cpu clock=  7.19E+00 peak memory=       234 mb  tot_iter=    1730
 output: DRAM_MOSFET_Sweep.mt0
 sweep: tran tran173  begin, stop_t=  7.55E+00 #sweeps=**** cpu clock=  7.19E+00
 tran: time= 8.0107E-01 tot_iter=      29 conv_iter=      14 cpu clock= 7.19E+00
 tran: time= 1.6502E+00 tot_iter=      35 conv_iter=      17 cpu clock= 7.19E+00
 tran: time= 2.4052E+00 tot_iter=      39 conv_iter=      19 cpu clock= 7.19E+00
 tran: time= 3.1602E+00 tot_iter=      43 conv_iter=      21 cpu clock= 7.19E+00
 tran: time= 3.9152E+00 tot_iter=      47 conv_iter=      23 cpu clock= 7.19E+00
 tran: time= 4.6702E+00 tot_iter=      51 conv_iter=      25 cpu clock= 7.19E+00
 tran: time= 5.4252E+00 tot_iter=      55 conv_iter=      27 cpu clock= 7.19E+00
 tran: time= 6.1802E+00 tot_iter=      59 conv_iter=      29 cpu clock= 7.19E+00
 tran: time= 6.9352E+00 tot_iter=      63 conv_iter=      31 cpu clock= 7.19E+00
 tran: time= 7.5500E+00 tot_iter=      67 conv_iter=      33 cpu clock= 7.19E+00
 sweep: tran tran173  end,  cpu clock=  7.19E+00 peak memory=       234 mb
 data: data=table           multiplier      =    1.40E+01
 dcop: begin dcop,  cpu clock=  7.22E+00
 dcop: end dcop,  cpu clock=  7.22E+00 peak memory=       234 mb  tot_iter=    1740
 output: DRAM_MOSFET_Sweep.mt0
 sweep: tran tran174  begin, stop_t=  7.55E+00 #sweeps=**** cpu clock=  7.23E+00
 tran: time= 7.7311E-01 tot_iter=      29 conv_iter=      14 cpu clock= 7.23E+00
 tran: time= 1.6027E+00 tot_iter=      35 conv_iter=      17 cpu clock= 7.23E+00
 tran: time= 2.3577E+00 tot_iter=      39 conv_iter=      19 cpu clock= 7.23E+00
 tran: time= 3.1127E+00 tot_iter=      43 conv_iter=      21 cpu clock= 7.23E+00
 tran: time= 3.8677E+00 tot_iter=      47 conv_iter=      23 cpu clock= 7.23E+00
 tran: time= 4.6227E+00 tot_iter=      51 conv_iter=      25 cpu clock= 7.23E+00
 tran: time= 5.3777E+00 tot_iter=      55 conv_iter=      27 cpu clock= 7.23E+00
 tran: time= 6.1327E+00 tot_iter=      59 conv_iter=      29 cpu clock= 7.23E+00
 tran: time= 6.8877E+00 tot_iter=      63 conv_iter=      31 cpu clock= 7.23E+00
 tran: time= 7.5500E+00 tot_iter=      67 conv_iter=      33 cpu clock= 7.23E+00
 sweep: tran tran174  end,  cpu clock=  7.23E+00 peak memory=       234 mb
 data: data=table           multiplier      =    1.50E+01
 dcop: begin dcop,  cpu clock=  7.27E+00
 dcop: end dcop,  cpu clock=  7.27E+00 peak memory=       234 mb  tot_iter=    1750
 output: DRAM_MOSFET_Sweep.mt0
 sweep: tran tran175  begin, stop_t=  7.55E+00 #sweeps=**** cpu clock=  7.27E+00
 tran: time= 9.5447E-01 tot_iter=      31 conv_iter=      15 cpu clock= 7.27E+00
 tran: time= 1.5471E+00 tot_iter=      35 conv_iter=      17 cpu clock= 7.27E+00
 tran: time= 2.3021E+00 tot_iter=      39 conv_iter=      19 cpu clock= 7.27E+00
 tran: time= 3.0571E+00 tot_iter=      43 conv_iter=      21 cpu clock= 7.27E+00
 tran: time= 3.8121E+00 tot_iter=      47 conv_iter=      23 cpu clock= 7.27E+00
 tran: time= 4.5671E+00 tot_iter=      51 conv_iter=      25 cpu clock= 7.27E+00
 tran: time= 5.3221E+00 tot_iter=      55 conv_iter=      27 cpu clock= 7.27E+00
 tran: time= 6.0771E+00 tot_iter=      59 conv_iter=      29 cpu clock= 7.27E+00
 tran: time= 6.8321E+00 tot_iter=      63 conv_iter=      31 cpu clock= 7.27E+00
 tran: time= 7.5500E+00 tot_iter=      67 conv_iter=      33 cpu clock= 7.27E+00
 sweep: tran tran175  end,  cpu clock=  7.27E+00 peak memory=       234 mb
 data: data=table           multiplier      =    1.60E+01
 dcop: begin dcop,  cpu clock=  7.30E+00
 dcop: end dcop,  cpu clock=  7.30E+00 peak memory=       234 mb  tot_iter=    1760
 output: DRAM_MOSFET_Sweep.mt0
 sweep: tran tran176  begin, stop_t=  7.55E+00 #sweeps=**** cpu clock=  7.30E+00
 tran: time= 9.1623E-01 tot_iter=      31 conv_iter=      15 cpu clock= 7.30E+00
 tran: time= 1.8710E+00 tot_iter=      37 conv_iter=      18 cpu clock= 7.30E+00
 tran: time= 2.6260E+00 tot_iter=      41 conv_iter=      20 cpu clock= 7.30E+00
 tran: time= 3.3810E+00 tot_iter=      45 conv_iter=      22 cpu clock= 7.30E+00
 tran: time= 4.1360E+00 tot_iter=      49 conv_iter=      24 cpu clock= 7.30E+00
 tran: time= 4.8910E+00 tot_iter=      53 conv_iter=      26 cpu clock= 7.30E+00
 tran: time= 5.6460E+00 tot_iter=      57 conv_iter=      28 cpu clock= 7.30E+00
 tran: time= 6.4010E+00 tot_iter=      61 conv_iter=      30 cpu clock= 7.30E+00
 tran: time= 7.1560E+00 tot_iter=      65 conv_iter=      32 cpu clock= 7.30E+00
 tran: time= 7.5500E+00 tot_iter=      67 conv_iter=      33 cpu clock= 7.30E+00
 sweep: tran tran176  end,  cpu clock=  7.30E+00 peak memory=       234 mb
 sweep: data            data            1 end
>info:         ***** hspice job concluded
 lic: Release hspice token(s)
