$DATA1 SOURCE='HSPICE' VERSION='L-2016.06 linux64' PARAM_COUNT=3
.TITLE '*************************'
 index            p_fin            loadcap          rtl             
                  avg_current      avg_power        temper          
                  alter#          
 1                   1.0000         1.000e-15        1.589e-07      
                  -1.947e-09       -7.703e-17         25.0000       
                 1               
 2                   2.0000         1.000e-15        8.532e-08      
                  -3.566e-09       -8.011e-17         25.0000       
                 1               
 3                   3.0000         1.000e-15        5.497e-08      
                  -4.740e-09       -8.380e-17         25.0000       
                 1               
 4                   4.0000         1.000e-15        4.095e-08      
                  -6.222e-09       -7.211e-17         25.0000       
                 1               
 5                   5.0000         1.000e-15        1.598e-08      
                  -1.923e-08       -1.703e-16         25.0000       
                 1               
 6                   1.0000         2.951e-15        4.814e-07      
                  -1.687e-09       -1.925e-16         25.0000       
                 1               
 7                   2.0000         2.951e-15        2.350e-07      
                  -3.273e-09       -1.794e-16         25.0000       
                 1               
 8                   3.0000         2.951e-15        1.579e-07      
                  -5.781e-09       -2.275e-16         25.0000       
                 1               
 9                   4.0000         2.951e-15        1.239e-07      
                  -7.318e-09       -2.507e-16         25.0000       
                 1               
 10                  5.0000         2.951e-15        9.668e-08      
                  -9.306e-09       -2.510e-16         25.0000       
                 1               
 11                  1.0000         8.706e-15        1.366e-06      
                  -1.710e-09       -5.490e-16         25.0000       
                 1               
 12                  2.0000         8.706e-15        7.495e-07      
                  -2.976e-09       -5.268e-16         25.0000       
                 1               
 13                  3.0000         8.706e-15        4.779e-07      
                  -5.013e-09       -5.664e-16         25.0000       
                 1               
 14                  4.0000         8.706e-15        3.424e-07      
                  -6.816e-09       -5.525e-16         25.0000       
                 1               
 15                  5.0000         8.706e-15        2.919e-07      
                  -7.906e-09       -5.604e-16         25.0000       
                 1               
 16                  1.0000         2.569e-14        4.216e-06      
                  -1.589e-09       -1.554e-15         25.0000       
                 1               
 17                  2.0000         2.569e-14        2.062e-06      
                  -3.442e-09       -1.693e-15         25.0000       
                 1               
 18                  3.0000         2.569e-14        1.357e-06      
                  -5.076e-09       -1.620e-15         25.0000       
                 1               
 19                  4.0000         2.569e-14        1.100e-06      
                  -6.174e-09       -1.585e-15         25.0000       
                 1               
 20                  5.0000         2.569e-14        8.435e-07      
                  -7.871e-09       -1.536e-15         25.0000       
                 1               
 21                  1.0000         7.579e-14        1.128e-05      
                  -1.887e-09       -4.858e-15         25.0000       
                 1               
 22                  2.0000         7.579e-14        1.549e-06      
                  -1.890e-08       -6.668e-15         25.0000       
                 1               
 23                  3.0000         7.579e-14        4.385e-06      
                  -4.943e-09       -5.037e-15         25.0000       
                 1               
 24                  4.0000         7.579e-14        3.296e-06      
                  -6.451e-09       -4.899e-15         25.0000       
                 1               
 25                  5.0000         7.579e-14        2.368e-06      
                  -9.844e-09       -5.671e-15         25.0000       
                 1               
 26                  1.0000         2.236e-13        3.459e-05      
                  -1.122e-09       -1.068e-14         25.0000       
                 1               
 27                  2.0000         2.236e-13        1.755e-05      
                  -3.683e-09       -1.502e-14         25.0000       
                 1               
 28                  3.0000         2.236e-13        1.117e-05      
                  -5.618e-09       -1.432e-14         25.0000       
                 1               
 29                  4.0000         2.236e-13        3.955e-06      
                  -2.186e-08       -2.037e-14         25.0000       
                 1               
 30                  5.0000         2.236e-13        1.649e-06      
                  -5.206e-08       -1.999e-14         25.0000       
                 1               
 31                  1.0000         6.598e-13        1.053e-04      
                  -1.676e-09       -4.179e-14         25.0000       
                 1               
 32                  2.0000         6.598e-13        5.060e-05      
                  -3.275e-09       -3.874e-14         25.0000       
                 1               
 33                  3.0000         6.598e-13        3.360e-05      
                  -3.390e-09       -3.141e-14         25.0000       
                 1               
 34                  4.0000         6.598e-13        2.373e-05      
                  -8.195e-09       -4.619e-14         25.0000       
                 1               
 35                  5.0000         6.598e-13        2.071e-05      
                  -9.337e-09       -4.511e-14         25.0000       
                 1               
 36                  1.0000         1.947e-12        3.005e-04      
                  -1.679e-09       -1.184e-13         25.0000       
                 1               
 37                  2.0000         1.947e-12        1.539e-04      
                  -3.472e-09       -1.284e-13         25.0000       
                 1               
 38                  3.0000         1.947e-12        1.044e-04      
                  -4.985e-09       -1.232e-13         25.0000       
                 1               
 39                  4.0000         1.947e-12        7.406e-05      
                  -6.825e-09       -1.194e-13         25.0000       
                 1               
 40                  5.0000         1.947e-12        6.194e-05      
                  -8.039e-09       -1.165e-13         25.0000       
                 1               
 41                  1.0000         5.743e-12        9.216e-04      
                  -1.641e-09       -3.502e-13         25.0000       
                 1               
 42                  2.0000         5.743e-12        4.574e-04      
                  -3.374e-09       -3.646e-13         25.0000       
                 1               
 43                  3.0000         5.743e-12        2.987e-04      
                  -4.983e-09       -3.488e-13         25.0000       
                 1               
 44                  4.0000         5.743e-12        2.457e-04      
                  -5.964e-09       -3.374e-13         25.0000       
                 1               
 45                  5.0000         5.743e-12        1.866e-04      
                  -7.650e-09       -3.285e-13         25.0000       
                 1               
 46                  1.0000         1.695e-11        2.618e-03      
                  -2.068e-09       -1.319e-12         25.0000       
                 1               
 47                  2.0000         1.695e-11        1.448e-03      
                  -3.728e-09       -1.278e-12         25.0000       
                 1               
 48                  3.0000         1.695e-11        9.134e-04      
                  -4.881e-09       -1.032e-12         25.0000       
                 1               
 49                  4.0000         1.695e-11        6.912e-04      
                  -6.309e-09       -1.001e-12         25.0000       
                 1               
 50                  5.0000         1.695e-11        5.107e-04      
                  -8.966e-09       -1.096e-12         25.0000       
                 1               
 51                  1.0000         5.000e-11        7.382e-03      
                  -2.189e-09       -4.047e-12         25.0000       
                 1               
 52                  2.0000         5.000e-11        3.949e-03      
                  -4.078e-09       -3.951e-12         25.0000       
                 1               
 53                  3.0000         5.000e-11        2.601e-03      
                  -6.144e-09       -3.889e-12         25.0000       
                 1               
 54                  4.0000         5.000e-11        2.118e-03      
                  -7.555e-09       -3.842e-12         25.0000       
                 1               
 55                  5.0000         5.000e-11        1.617e-03      
                  -9.823e-09       -3.804e-12         25.0000       
                 1               
